Finite Element Modeling (FEM) Code 
==================================

Python Tools, Field II Intensity Field Solution, LS-DYNA Pre/Post Processing

This repository was managed via svn until 2013-04-22; migrated to GitHub for
active management.  All software in this repository is licensed under the MIT
license, as detailed in the LICENSE file.

If you are using these simulation tools in work that you publish, then please
consider citing the following manuscript:

Palmeri ML, Sharma AC, Bouchard RR, Nightingale RW, Nightingale KR.  "A
Finite-Element Method Model of Soft Tissue Response to Impulsive Acoustic
Radiation Force," IEEE UFFC, 52(10): 1699-1712, 2005. [PMCID: 16382621]
