 TEST MESH (GAUSSIAN, PML, QSYM)                                         
                         ls-dyna smp.78769 d            date 01/02/2013



 n o d a l   p r i n t   o u t   f o r   t i m e  s t e p       1                              ( at time 0.0000000E+00 )

 nodal point  x-disp     y-disp      z-disp      x-vel       y-vel       z-vel      x-accl      y-accl      z-accl      x-coor      y-coor      z-coor
        6   0.0000E+00  0.0000E+00 -1.5000E+00  0.0000E+00  0.0000E+00  0.0000E+00  0.0000E+00  0.0000E+00  0.0000E+00 -1.5000E+00  0.0000E+00 -3.0000E+00
        7   0.0000E+00  0.0000E+00 -1.5000-345  0.0000E+00  0.0000E+00  0.0000E+00  0.0000E+00  0.0000E+00  0.0000E+00 -1.5000-345  0.0000E+00 -3.0000E+00
        8  0.00000E+00 0.00000E+00-1.50000E+00 0.00000E+00 0.00000E+00 0.00000E+00 0.00000E+00 0.00000E+00 0.00000E+00-1.50000E+00 0.00000E+00-3.00000E+00
