 TEST MESH (GAUSSIAN, QSYM)                                              
                         ls-dyna smp.78769 s            date 01/02/2013


 dt of cycle       1 is controlled by solid         843750 of part         1

 time...........................   0.00000E+00
 time step......................   6.11674E-07
 kinetic energy.................   0.00000E+00
 internal energy................   1.00000E-20
 spring and damper energy.......   1.00000E-20
 hourglass energy ..............   0.00000E+00
 system damping energy..........   0.00000E+00
 sliding interface energy.......   0.00000E+00
 external work..................   0.00000E+00
 eroded kinetic energy..........   0.00000E+00
 eroded internal energy.........   0.00000E+00
 eroded hourglass energy........   0.00000E+00
 total energy...................   1.00000E-20
 total energy / initial energy..   1.00000E+00
 energy ratio w/o eroded energy.   1.00000E+00
 global x velocity..............   0.00000E+00
 global y velocity..............   0.00000E+00
 global z velocity..............   0.00000E+00
 time per zone cycle.(nanosec)..             0


 dt of cycle     820 is controlled by solid         573825 of part         1

 time...........................   4.99910E-04
 time step......................   6.08770E-07
 kinetic energy.................   3.27330E-01
 internal energy................   1.33758E-01
 spring and damper energy.......   1.00000E-20
 hourglass energy ..............   6.08150E-04
 system damping energy..........   0.00000E+00
 sliding interface energy.......   0.00000E+00
 external work..................   4.61728E-01
 eroded kinetic energy..........   0.00000E+00
 eroded internal energy.........   0.00000E+00
 eroded hourglass energy........   0.00000E+00
 total energy...................   4.61696E-01
 total energy / initial energy..   9.99930E-01
 energy ratio w/o eroded energy.   9.99930E-01
 global x velocity..............  -3.51938E-05
 global y velocity..............   3.51818E-05
 global z velocity..............  -5.65957E-02
 time per zone cycle.(nanosec)..           323


 dt of cycle    1640 is controlled by solid         196950 of part         1

 time...........................   9.99398E-04
 time step......................   6.09472E-07
 kinetic energy.................   1.69021E-01
 internal energy................   2.91682E-01
 spring and damper energy.......   1.00000E-20
 hourglass energy ..............   9.37591E-04
 system damping energy..........   0.00000E+00
 sliding interface energy.......   0.00000E+00
 external work..................   4.61728E-01
 eroded kinetic energy..........   0.00000E+00
 eroded internal energy.........   0.00000E+00
 eroded hourglass energy........   0.00000E+00
 total energy...................   4.61641E-01
 total energy / initial energy..   9.99811E-01
 energy ratio w/o eroded energy.   9.99811E-01
 global x velocity..............  -6.55187E-05
 global y velocity..............   6.56220E-05
 global z velocity..............  -5.38310E-02
 time per zone cycle.(nanosec)..           286


 dt of cycle    2461 is controlled by solid         151950 of part         1

 time...........................   1.49975E-03
 time step......................   6.09476E-07
 kinetic energy.................   1.44499E-01
 internal energy................   3.15996E-01
 spring and damper energy.......   1.00000E-20
 hourglass energy ..............   1.09352E-03
 system damping energy..........   0.00000E+00
 sliding interface energy.......   0.00000E+00
 external work..................   4.61728E-01
 eroded kinetic energy..........   0.00000E+00
 eroded internal energy.........   0.00000E+00
 eroded hourglass energy........   0.00000E+00
 total energy...................   4.61588E-01
 total energy / initial energy..   9.99697E-01
 energy ratio w/o eroded energy.   9.99697E-01
 global x velocity..............  -9.05224E-05
 global y velocity..............   9.07955E-05
 global z velocity..............  -4.41998E-02
 time per zone cycle.(nanosec)..           323


 dt of cycle    3281 is controlled by solid         219450 of part         1

 time...........................   1.99965E-03
 time step......................   6.09948E-07
 kinetic energy.................   1.80714E-01
 internal energy................   2.79621E-01
 spring and damper energy.......   1.00000E-20
 hourglass energy ..............   1.18691E-03
 system damping energy..........   0.00000E+00
 sliding interface energy.......   0.00000E+00
 external work..................   4.61696E-01
 eroded kinetic energy..........   0.00000E+00
 eroded internal energy.........   0.00000E+00
 eroded hourglass energy........   0.00000E+00
 total energy...................   4.61522E-01
 total energy / initial energy..   9.99622E-01
 energy ratio w/o eroded energy.   9.99622E-01
 global x velocity..............  -6.79159E-05
 global y velocity..............   6.76726E-05
 global z velocity..............  -2.47738E-02
 time per zone cycle.(nanosec)..           282


 dt of cycle    4100 is controlled by solid         152542 of part         1

 time...........................   2.49952E-03
 time step......................   6.10547E-07
 kinetic energy.................   2.03386E-01
 internal energy................   2.51880E-01
 spring and damper energy.......   1.00000E-20
 hourglass energy ..............   1.27548E-03
 system damping energy..........   0.00000E+00
 sliding interface energy.......   0.00000E+00
 external work..................   4.56627E-01
 eroded kinetic energy..........   0.00000E+00
 eroded internal energy.........   0.00000E+00
 eroded hourglass energy........   0.00000E+00
 total energy...................   4.56541E-01
 total energy / initial energy..   9.99813E-01
 energy ratio w/o eroded energy.   9.99813E-01
 global x velocity..............   1.56742E-05
 global y velocity..............  -1.57855E-05
 global z velocity..............   1.85375E-03
 time per zone cycle.(nanosec)..           279


 dt of cycle    4919 is controlled by solid         164088 of part         1

 time...........................   2.99962E-03
 time step......................   6.10695E-07
 kinetic energy.................   2.06953E-01
 internal energy................   2.31725E-01
 spring and damper energy.......   1.00000E-20
 hourglass energy ..............   1.36040E-03
 system damping energy..........   0.00000E+00
 sliding interface energy.......   0.00000E+00
 external work..................   4.40061E-01
 eroded kinetic energy..........   0.00000E+00
 eroded internal energy.........   0.00000E+00
 eroded hourglass energy........   0.00000E+00
 total energy...................   4.40038E-01
 total energy / initial energy..   9.99947E-01
 energy ratio w/o eroded energy.   9.99947E-01
 global x velocity..............   7.28170E-05
 global y velocity..............  -7.27769E-05
 global z velocity..............   2.37315E-02
 time per zone cycle.(nanosec)..           292
