 TEST MESH (GAUSSIAN, QSYM)                                              
                         ls-dyna smp.78769 s            date 01/02/2013


 dt of cycle       1 is controlled by solid         843750 of part         1

 time...........................   0.00000E+00
 time step......................   6.11674E-07
 kinetic energy.................   0.00000E+00
 internal energy................   1.00000E-20
 spring and damper energy.......   1.00000E-20
 hourglass energy ..............   0.00000E+00
 system damping energy..........   0.00000E+00
 sliding interface energy.......   0.00000E+00
 external work..................   0.00000E+00
 eroded kinetic energy..........   0.00000E+00
 eroded internal energy.........   0.00000E+00
 eroded hourglass energy........   0.00000E+00
 total energy...................   1.00000E-20
 total energy / initial energy..   1.00000E+00
 energy ratio w/o eroded energy.   1.00000E+00
 global x velocity..............   0.00000E+00
 global y velocity..............   0.00000E+00
 global z velocity..............   0.00000E+00
 time per zone cycle.(nanosec)..             0


 dt of cycle     820 is controlled by solid         573825 of part         1

 time...........................   4.99910E-04
 time step......................   6.08770E-07
 kinetic energy.................   3.27337E-01
 internal energy................   1.33758E-01
 spring and damper energy.......   1.00000E-20
 hourglass energy ..............   6.08150E-04
 system damping energy..........   0.00000E+00
 sliding interface energy.......   0.00000E+00
 external work..................   4.61728E-01
 eroded kinetic energy..........   0.00000E+00
 eroded internal energy.........   0.00000E+00
 eroded hourglass energy........   0.00000E+00
 total energy...................   4.61702E-01
 total energy / initial energy..   9.99945E-01
 energy ratio w/o eroded energy.   9.99945E-01
 global x velocity..............  -3.52468E-05
 global y velocity..............   3.52549E-05
 global z velocity..............  -5.65970E-02
 time per zone cycle.(nanosec)..           335


 dt of cycle    1640 is controlled by solid         196950 of part         1

 time...........................   9.99398E-04
 time step......................   6.09472E-07
 kinetic energy.................   1.69030E-01
 internal energy................   2.91682E-01
 spring and damper energy.......   1.00000E-20
 hourglass energy ..............   9.37591E-04
 system damping energy..........   0.00000E+00
 sliding interface energy.......   0.00000E+00
 external work..................   4.61728E-01
 eroded kinetic energy..........   0.00000E+00
 eroded internal energy.........   0.00000E+00
 eroded hourglass energy........   0.00000E+00
 total energy...................   4.61650E-01
 total energy / initial energy..   9.99831E-01
 energy ratio w/o eroded energy.   9.99831E-01
 global x velocity..............  -6.58365E-05
 global y velocity..............   6.58337E-05
 global z velocity..............  -5.38331E-02
 time per zone cycle.(nanosec)..           399


 dt of cycle    2461 is controlled by solid         151950 of part         1

 time...........................   1.49975E-03
 time step......................   6.09476E-07
 kinetic energy.................   1.44511E-01
 internal energy................   3.15996E-01
 spring and damper energy.......   1.00000E-20
 hourglass energy ..............   1.09352E-03
 system damping energy..........   0.00000E+00
 sliding interface energy.......   0.00000E+00
 external work..................   4.61728E-01
 eroded kinetic energy..........   0.00000E+00
 eroded internal energy.........   0.00000E+00
 eroded hourglass energy........   0.00000E+00
 total energy...................   4.61600E-01
 total energy / initial energy..   9.99723E-01
 energy ratio w/o eroded energy.   9.99723E-01
 global x velocity..............  -9.17560E-05
 global y velocity..............   9.17055E-05
 global z velocity..............  -4.42008E-02
 time per zone cycle.(nanosec)..           425


 dt of cycle    3281 is controlled by solid         219450 of part         1

 time...........................   1.99965E-03
 time step......................   6.09948E-07
 kinetic energy.................   1.80734E-01
 internal energy................   2.79621E-01
 spring and damper energy.......   1.00000E-20
 hourglass energy ..............   1.18691E-03
 system damping energy..........   0.00000E+00
 sliding interface energy.......   0.00000E+00
 external work..................   4.61696E-01
 eroded kinetic energy..........   0.00000E+00
 eroded internal energy.........   0.00000E+00
 eroded hourglass energy........   0.00000E+00
 total energy...................   4.61543E-01
 total energy / initial energy..   9.99667E-01
 energy ratio w/o eroded energy.   9.99667E-01
 global x velocity..............  -6.82911E-05
 global y velocity..............   6.82774E-05
 global z velocity..............  -2.47746E-02
 time per zone cycle.(nanosec)..           392


 dt of cycle    4100 is controlled by solid         152542 of part         1

 time...........................   2.49952E-03
 time step......................   6.10547E-07
 kinetic energy.................   2.03390E-01
 internal energy................   2.51880E-01
 spring and damper energy.......   1.00000E-20
 hourglass energy ..............   1.27548E-03
 system damping energy..........   0.00000E+00
 sliding interface energy.......   0.00000E+00
 external work..................   4.56627E-01
 eroded kinetic energy..........   0.00000E+00
 eroded internal energy.........   0.00000E+00
 eroded hourglass energy........   0.00000E+00
 total energy...................   4.56546E-01
 total energy / initial energy..   9.99823E-01
 energy ratio w/o eroded energy.   9.99823E-01
 global x velocity..............   1.56014E-05
 global y velocity..............  -1.56665E-05
 global z velocity..............   1.85375E-03
 time per zone cycle.(nanosec)..           338


 dt of cycle    4919 is controlled by solid         164088 of part         1

 time...........................   2.99962E-03
 time step......................   6.10695E-07
 kinetic energy.................   2.06975E-01
 internal energy................   2.31725E-01
 spring and damper energy.......   1.00000E-20
 hourglass energy ..............   1.36040E-03
 system damping energy..........   0.00000E+00
 sliding interface energy.......   0.00000E+00
 external work..................   4.40061E-01
 eroded kinetic energy..........   0.00000E+00
 eroded internal energy.........   0.00000E+00
 eroded hourglass energy........   0.00000E+00
 total energy...................   4.40060E-01
 total energy / initial energy..   9.99997E-01
 energy ratio w/o eroded energy.   9.99997E-01
 global x velocity..............   7.29227E-05
 global y velocity..............  -7.29425E-05
 global z velocity..............   2.37315E-02
 time per zone cycle.(nanosec)..           386


 dt of cycle    5738 is controlled by solid         232403 of part         1

 time...........................   3.49985E-03
 time step......................   6.10991E-07
 kinetic energy.................   2.06363E-01
 internal energy................   2.21334E-01
 spring and damper energy.......   1.00000E-20
 hourglass energy ..............   1.43936E-03
 system damping energy..........   0.00000E+00
 sliding interface energy.......   0.00000E+00
 external work..................   4.29141E-01
 eroded kinetic energy..........   0.00000E+00
 eroded internal energy.........   0.00000E+00
 eroded hourglass energy........   0.00000E+00
 total energy...................   4.29136E-01
 total energy / initial energy..   9.99987E-01
 energy ratio w/o eroded energy.   9.99987E-01
 global x velocity..............   4.82453E-05
 global y velocity..............  -4.82635E-05
 global z velocity..............   2.75183E-02
 time per zone cycle.(nanosec)..           664


 dt of cycle    6556 is controlled by solid         141198 of part         1

 time...........................   3.99961E-03
 time step......................   6.10890E-07
 kinetic energy.................   2.09463E-01
 internal energy................   2.13716E-01
 spring and damper energy.......   1.00000E-20
 hourglass energy ..............   1.50933E-03
 system damping energy..........   0.00000E+00
 sliding interface energy.......   0.00000E+00
 external work..................   4.24660E-01
 eroded kinetic energy..........   0.00000E+00
 eroded internal energy.........   0.00000E+00
 eroded hourglass energy........   0.00000E+00
 total energy...................   4.24688E-01
 total energy / initial energy..   1.00007E+00
 energy ratio w/o eroded energy.   1.00007E+00
 global x velocity..............   1.62523E-05
 global y velocity..............  -1.62741E-05
 global z velocity..............   1.64491E-02
 time per zone cycle.(nanosec)..           505


 dt of cycle    7375 is controlled by solid         136702 of part         1

 time...........................   4.49999E-03
 time step......................   6.11029E-07
 kinetic energy.................   2.14267E-01
 internal energy................   2.03359E-01
 spring and damper energy.......   1.00000E-20
 hourglass energy ..............   1.57416E-03
 system damping energy..........   0.00000E+00
 sliding interface energy.......   0.00000E+00
 external work..................   4.19196E-01
 eroded kinetic energy..........   0.00000E+00
 eroded internal energy.........   0.00000E+00
 eroded hourglass energy........   0.00000E+00
 total energy...................   4.19200E-01
 total energy / initial energy..   1.00001E+00
 energy ratio w/o eroded energy.   1.00001E+00
 global x velocity..............  -5.14782E-06
 global y velocity..............   5.11745E-06
 global z velocity..............   6.26357E-03
 time per zone cycle.(nanosec)..           723


 dt of cycle    8193 is controlled by solid         169989 of part         1

 time...........................   4.99980E-03
 time step......................   6.11034E-07
 kinetic energy.................   2.16086E-01
 internal energy................   1.97231E-01
 spring and damper energy.......   1.00000E-20
 hourglass energy ..............   1.63419E-03
 system damping energy..........   0.00000E+00
 sliding interface energy.......   0.00000E+00
 external work..................   4.14990E-01
 eroded kinetic energy..........   0.00000E+00
 eroded internal energy.........   0.00000E+00
 eroded hourglass energy........   0.00000E+00
 total energy...................   4.14952E-01
 total energy / initial energy..   9.99909E-01
 energy ratio w/o eroded energy.   9.99909E-01
 global x velocity..............   7.41969E-06
 global y velocity..............  -7.42055E-06
 global z velocity..............   4.90353E-03
 time per zone cycle.(nanosec)..           658


 dt of cycle    9011 is controlled by solid         189075 of part         1

 time...........................   5.49965E-03
 time step......................   6.11086E-07
 kinetic energy.................   2.20393E-01
 internal energy................   1.90649E-01
 spring and damper energy.......   1.00000E-20
 hourglass energy ..............   1.69132E-03
 system damping energy..........   0.00000E+00
 sliding interface energy.......   0.00000E+00
 external work..................   4.12774E-01
 eroded kinetic energy..........   0.00000E+00
 eroded internal energy.........   0.00000E+00
 eroded hourglass energy........   0.00000E+00
 total energy...................   4.12734E-01
 total energy / initial energy..   9.99903E-01
 energy ratio w/o eroded energy.   9.99903E-01
 global x velocity..............   1.65538E-05
 global y velocity..............  -1.63633E-05
 global z velocity..............   8.26974E-03
 time per zone cycle.(nanosec)..           513


 dt of cycle    9829 is controlled by solid         209654 of part         1

 time...........................   5.99953E-03
 time step......................   6.11110E-07
 kinetic energy.................   2.21685E-01
 internal energy................   1.87707E-01
 spring and damper energy.......   1.00000E-20
 hourglass energy ..............   1.74635E-03
 system damping energy..........   0.00000E+00
 sliding interface energy.......   0.00000E+00
 external work..................   4.11181E-01
 eroded kinetic energy..........   0.00000E+00
 eroded internal energy.........   0.00000E+00
 eroded hourglass energy........   0.00000E+00
 total energy...................   4.11138E-01
 total energy / initial energy..   9.99896E-01
 energy ratio w/o eroded energy.   9.99896E-01
 global x velocity..............   1.24795E-05
 global y velocity..............  -1.25409E-05
 global z velocity..............   7.66019E-03
 time per zone cycle.(nanosec)..           513


 dt of cycle   10647 is controlled by solid         227657 of part         1

 time...........................   6.49943E-03
 time step......................   6.11126E-07
 kinetic energy.................   2.13797E-01
 internal energy................   1.93397E-01
 spring and damper energy.......   1.00000E-20
 hourglass energy ..............   1.79986E-03
 system damping energy..........   0.00000E+00
 sliding interface energy.......   0.00000E+00
 external work..................   4.09058E-01
 eroded kinetic energy..........   0.00000E+00
 eroded internal energy.........   0.00000E+00
 eroded hourglass energy........   0.00000E+00
 total energy...................   4.08994E-01
 total energy / initial energy..   9.99844E-01
 energy ratio w/o eroded energy.   9.99844E-01
 global x velocity..............   1.67185E-05
 global y velocity..............  -1.68975E-05
 global z velocity..............   3.17219E-03
 time per zone cycle.(nanosec)..           520


 dt of cycle   11466 is controlled by solid         624464 of part         1

 time...........................   6.99996E-03
 time step......................   6.11168E-07
 kinetic energy.................   2.01010E-01
 internal energy................   1.96386E-01
 spring and damper energy.......   1.00000E-20
 hourglass energy ..............   1.85019E-03
 system damping energy..........   0.00000E+00
 sliding interface energy.......   0.00000E+00
 external work..................   3.99251E-01
 eroded kinetic energy..........   0.00000E+00
 eroded internal energy.........   0.00000E+00
 eroded hourglass energy........   0.00000E+00
 total energy...................   3.99246E-01
 total energy / initial energy..   9.99987E-01
 energy ratio w/o eroded energy.   9.99987E-01
 global x velocity..............   2.06689E-05
 global y velocity..............  -2.06534E-05
 global z velocity..............   1.39947E-03
 time per zone cycle.(nanosec)..           698


 dt of cycle   12284 is controlled by solid         624375 of part         1

 time...........................   7.49986E-03
 time step......................   6.11028E-07
 kinetic energy.................   1.80919E-01
 internal energy................   1.87882E-01
 spring and damper energy.......   1.00000E-20
 hourglass energy ..............   1.89760E-03
 system damping energy..........   0.00000E+00
 sliding interface energy.......   0.00000E+00
 external work..................   3.70754E-01
 eroded kinetic energy..........   0.00000E+00
 eroded internal energy.........   0.00000E+00
 eroded hourglass energy........   0.00000E+00
 total energy...................   3.70699E-01
 total energy / initial energy..   9.99850E-01
 energy ratio w/o eroded energy.   9.99850E-01
 global x velocity..............   1.74334E-05
 global y velocity..............  -1.74759E-05
 global z velocity..............   1.05044E-02
 time per zone cycle.(nanosec)..           711


 dt of cycle   13102 is controlled by solid         596251 of part         1

 time...........................   7.99961E-03
 time step......................   6.10859E-07
 kinetic energy.................   1.53768E-01
 internal energy................   1.69454E-01
 spring and damper energy.......   1.00000E-20
 hourglass energy ..............   1.94324E-03
 system damping energy..........   0.00000E+00
 sliding interface energy.......   0.00000E+00
 external work..................   3.25200E-01
 eroded kinetic energy..........   0.00000E+00
 eroded internal energy.........   0.00000E+00
 eroded hourglass energy........   0.00000E+00
 total energy...................   3.25166E-01
 total energy / initial energy..   9.99896E-01
 energy ratio w/o eroded energy.   9.99896E-01
 global x velocity..............   6.89154E-06
 global y velocity..............  -7.04933E-06
 global z velocity..............   3.14435E-02
 time per zone cycle.(nanosec)..           501


 dt of cycle   13921 is controlled by solid         523125 of part         1

 time...........................   8.49994E-03
 time step......................   6.11171E-07
 kinetic energy.................   1.31673E-01
 internal energy................   1.47987E-01
 spring and damper energy.......   1.00000E-20
 hourglass energy ..............   1.98488E-03
 system damping energy..........   0.00000E+00
 sliding interface energy.......   0.00000E+00
 external work..................   2.81639E-01
 eroded kinetic energy..........   0.00000E+00
 eroded internal energy.........   0.00000E+00
 eroded hourglass energy........   0.00000E+00
 total energy...................   2.81645E-01
 total energy / initial energy..   1.00002E+00
 energy ratio w/o eroded energy.   1.00002E+00
 global x velocity..............  -2.49303E-06
 global y velocity..............   2.47639E-06
 global z velocity..............   5.34882E-02
 time per zone cycle.(nanosec)..           705


 dt of cycle   14739 is controlled by solid         736876 of part         1

 time...........................   8.99986E-03
 time step......................   6.11129E-07
 kinetic energy.................   1.15998E-01
 internal energy................   1.28629E-01
 spring and damper energy.......   1.00000E-20
 hourglass energy ..............   2.02115E-03
 system damping energy..........   0.00000E+00
 sliding interface energy.......   0.00000E+00
 external work..................   2.46660E-01
 eroded kinetic energy..........   0.00000E+00
 eroded internal energy.........   0.00000E+00
 eroded hourglass energy........   0.00000E+00
 total energy...................   2.46649E-01
 total energy / initial energy..   9.99952E-01
 energy ratio w/o eroded energy.   9.99952E-01
 global x velocity..............  -8.87391E-06
 global y velocity..............   8.94563E-06
 global z velocity..............   6.36805E-02
 time per zone cycle.(nanosec)..           699


 dt of cycle   15557 is controlled by solid         748126 of part         1

 time...........................   9.49981E-03
 time step......................   6.11286E-07
 kinetic energy.................   9.65301E-02
 internal energy................   1.08943E-01
 spring and damper energy.......   1.00000E-20
 hourglass energy ..............   2.05485E-03
 system damping energy..........   0.00000E+00
 sliding interface energy.......   0.00000E+00
 external work..................   2.07537E-01
 eroded kinetic energy..........   0.00000E+00
 eroded internal energy.........   0.00000E+00
 eroded hourglass energy........   0.00000E+00
 total energy...................   2.07528E-01
 total energy / initial energy..   9.99953E-01
 energy ratio w/o eroded energy.   9.99953E-01
 global x velocity..............  -6.15023E-06
 global y velocity..............   6.20789E-06
 global z velocity..............   5.79639E-02
 time per zone cycle.(nanosec)..           627


 dt of cycle   16375 is controlled by solid           5700 of part         1

 time...........................   9.99983E-03
 time step......................   6.11284E-07
 kinetic energy.................   7.38889E-02
 internal energy................   8.55551E-02
 spring and damper energy.......   1.00000E-20
 hourglass energy ..............   2.08334E-03
 system damping energy..........   0.00000E+00
 sliding interface energy.......   0.00000E+00
 external work..................   1.61546E-01
 eroded kinetic energy..........   0.00000E+00
 eroded internal energy.........   0.00000E+00
 eroded hourglass energy........   0.00000E+00
 total energy...................   1.61527E-01
 total energy / initial energy..   9.99884E-01
 energy ratio w/o eroded energy.   9.99884E-01
 global x velocity..............   1.48958E-06
 global y velocity..............  -1.49101E-06
 global z velocity..............   4.00007E-02
 time per zone cycle.(nanosec)..           669
