      Date: 02/19/2015      Time: 15:33:19  

     ___________________________________________________
     |                                                 |
     |  Livermore  Software  Technology  Corporation   |
     |                                                 |
     |  7374 Las Positas Road                          |
     |  Livermore, CA 94551                            |
     |  Tel: (925) 449-2500  Fax: (925) 449-2507       |
     |  www.lstc.com                                   |
     |_________________________________________________|
     |                                                 |
     |  LS-DYNA, A Program for Nonlinear Dynamic       |
     |  Analysis of Structures in Three Dimensions     |
     |  Version : smp s R6.1.1    Date: 01/02/2013     |
     |  Revision: 78769           Time: 07:43:30       |
     |                                                 |
     |  Features enabled in this version:              |
     |    Shared Memory Parallel                       |
     |    Interactive Graphics                         |
     |    ANSYS Database format                        |
     |    ANSYS License (ANSYS140)                     |
     |    MADYMO indirect coupling (7.2 or higer)      |
     |                                                 |
     |  Licensed to: Duke University - 081             |
     |  Issued by  : LSTC_01062015                     |
     |                                                 |
     |  Platform   : Xeon64 System                     |
     |  OS Level   : Linux 2.6.18                      |
     |  Compiler   : Intel Fortran Compiler 10.1       |
     |  Hostname   : farlow.egr.duke.edu               |
     |  Precision  : Single precision (I4R4)           |
     |  SVN Version: 78774                             |
     |                                                 |
     |  Unauthorized use infringes LSTC copyrights     |
     |_________________________________________________|

 Input file: gauss.dyn                                                               


 The native file format       : 32-bit small endian
 Memory size from *KEYWORD    :   100000000
 expanding   memory to   100000000 starting ls-dyna

 ********  notice  ********  notice  ********  notice  ********
 *                                                            *
 * This is the LS-DYNA Finite Element code.                   *
 *                                                            *
 * Neither LSTC nor the authors assume any responsibility for *
 * the validity, accuracy, or applicability of any results    *
 * obtained from this system. The user must verify his own    *
 * results.                                                   *
 *                                                            *
 * LSTC endeavors to make the LS-DYNA code as complete,       *
 * accurate and easy to use as possible.                      *
 * Suggestions and comments are welcomed.  Please report any  *
 * errors encountered in either the documentation or results  *
 * immediately to LSTC through your site focus.               *
 *                                                            *
 * Copyright (C) 1990-2013                                    *
 * by Livermore Software Technology Corp. (LSTC)              *
 * All rights reserved                                        *
 *                                                            *
 ********  notice  ********  notice  ********  notice  ********

 Beginning of keyword reader                                   02/19/15 15:33:19
 contracting memory to           1 beginning of keyword reader
 expanding   memory to       22040  
 expanding   memory to     5266744  
 expanding   memory to    20499244  
 expanding   memory to    20529244  
 expanding   memory to    20589244  
 expanding   memory to    20609508  
 expanding   memory to    24000952  
 expanding   memory to    27379952  
 expanding   memory to    27401068  

 Open include file: ./nodes.dyn

 Open include file: ./elems.dyn

 Open include file: ./bc.dyn
 expanding   memory to    27421164  
 expanding   memory to    27441164  
 expanding   memory to    27461164  
 expanding   memory to    27481164  
 expanding   memory to    27501164  
 expanding   memory to    27521164  
 expanding   memory to    27541164  
 expanding   memory to    27561164  
 expanding   memory to    27581164  
 expanding   memory to    27601164  
 expanding   memory to    27621164  
 expanding   memory to    27641164  
 expanding   memory to    27661164  
 expanding   memory to    27681164  
 expanding   memory to    27701164  
 expanding   memory to    27721164  
 expanding   memory to    27741164  
 expanding   memory to    27761164  
 expanding   memory to    27781164  

 Open include file: ./loads.dyn
 expanding   memory to    27832204  
 expanding   memory to    27872204  
 expanding   memory to    27912204  
 expanding   memory to    27952204  
 expanding   memory to    27992204  
 expanding   memory to    28032204  
 expanding   memory to    28072204  
 expanding   memory to    28944380  
 expanding   memory to    29816556  
 expanding   memory to    39410492  
 expanding   memory to    40282668  
 expanding   memory to    55470168  
 expanding   memory to    56342344  
 expanding   memory to    57215520  
 expanding   memory to    60708224  
 expanding   memory to    60730224  
 expanding   memory to    60752224  
 expanding   memory to    60774224  
 expanding   memory to    60796224  
 expanding   memory to    60818224  
 expanding   memory to    60840224  
 expanding   memory to    60862224  
 expanding   memory to    60884224  
 expanding   memory to    60906224  
 expanding   memory to    60928224  
 expanding   memory to    60950224  
 expanding   memory to    60972224  
 expanding   memory to    60994224  
 expanding   memory to    61016224  
 expanding   memory to    61038224  
 expanding   memory to    61060224  
 expanding   memory to    61082224  
 expanding   memory to    61116124  
 expanding   memory to    61150024  
 expanding   memory to    61521826  

 Memory required to process keyword     :     61521826
 contracting memory to           1 end of keyword reader

 LS-DYNA will perform a structural only analysis 

 TEST MESH (GAUSSIAN, QSYM)                                              
                         ls-dyna smp.78769 s            date 01/02/2013
 expanding   memory to        2314 material, node and element data
 expanding   memory to        2398 material added airbag porosity leakage 
 contracting memory to        2398 material properties
 expanding   memory to    11900180 element data for composite material
 expanding   memory to    16361888 gradient of damage data
 expanding   memory to    29018187 user control for contact interfaces
 contracting memory to    29018167 for boundary cond. vectorization
 expanding   memory to    29861917 arbitrary element numbering input
 contracting memory to    29018167 thick shell int. pt. strain
 expanding   memory to    29690267 spc cards
 expanding   memory to    49457400 process element material data
 expanding   memory to    49459406 load curve data
 expanding   memory to    49866674 user_define_loading_set
 expanding   memory to    49866882 regularize time history data
 contracting memory to    49866674 rigidwall definitions
 expanding   memory to    50752039 nodal constraint sets
 expanding   memory to    56647473 contact interfaces
 expanding   memory to    58392825 implicit contact 1
 contracting memory to    56648473 contact segment data 1
 expanding   memory to    66015001 contact segment data 3
 contracting memory to    57519649 contact definition
 expanding   memory to    61008467 rigid body
 contracting memory to    57520174 contact friction
 expanding   memory to    57520189 joints
 contracting memory to    57520189 accelerometers
 expanding   memory to    57790189 non-reflecting silent boundary 1
 expanding   memory to    57790289 rigid bodies for disp. termination
 contracting memory to    57790289 transformation to move nodes
 expanding   memory to    59534641 interfac for file
 contracting memory to    58662466 thermal expansion 0
 expanding   memory to    58662467 flexible body 2
 contracting memory to    58662467 implicit joints
 expanding   memory to    62037467 initialization phase

 S t o r a g e   a l l o c a t i o n   

 Memory required to begin solution      :     66015001
 Additional dynamically allocated memory:     47893522
                                   Total:    113908523
       1 t 0.0000E+00 dt 6.12E-07 flush i/o buffers            02/19/15 15:37:18
       1 t 0.0000E+00 dt 6.12E-07 write d3plot file            02/19/15 15:37:18
 
 *** termination time reached ***
    4919 t 3.0002E-03 dt 6.11E-07 write d3dump01 file          02/19/15 15:47:12
    4919 t 3.0002E-03 dt 6.11E-07 write d3plot file            02/19/15 15:47:12

 N o r m a l    t e r m i n a t i o n                          02/19/15 15:47:13

 S t o r a g e   a l l o c a t i o n   

 Memory required to complete solution   :     66015001
 Additional dynamically allocated memory:     47893529
                                   Total:    113908530

 T i m i n g   i n f o r m a t i o n
                        CPU(seconds)   %CPU  Clock(seconds) %Clock
  ----------------------------------------------------------------
  Initialization ....... 2.3790E+02   16.82     2.3798E+02   28.57
  Element processing ... 1.1633E+03   82.24     5.8243E+02   69.93
  Binary databases ..... 3.4018E-01    0.02     1.9693E-01    0.02
  ASCII database ....... 1.2841E+01    0.91     1.2240E+01    1.47
  Contact algorithm .... 7.7103E-02    0.01     4.6407E-02    0.01
  Contact entities ..... 0.0000E+00    0.00     0.0000E+00    0.00
  Rigid bodies ......... 6.1826E-02    0.00     3.0854E-02    0.00
  Implicit Nonlinear ... 0.0000E+00    0.00     0.0000E+00    0.00
  Implicit Lin. Alg. ... 0.0000E+00    0.00     0.0000E+00    0.00
  ----------------------------------------------------------------
  T o t a l s            1.4145E+03  100.00     8.3292E+02  100.00

 Problem time       =    3.0002E-03
 Problem cycle      =      4919
 Total CPU time     =      1415 seconds (   0 hours 23 minutes 35 seconds)
 CPU time per zone cycle  =       283 nanoseconds
 Clock time per zone cycle=       143 nanoseconds

 Number of CPU's    2
 NLQ used/max     384/  384
 Start time   02/19/2015 15:33:19  
 End time     02/19/2015 15:47:13  
 Elapsed time     834 seconds(   0 hours 13 min. 54 sec.) for    4919 cycles

 N o r m a l    t e r m i n a t i o n                          02/19/15 15:47:13
