*KEYWORD 20000000         
*TITLE
THERM74 HEATING THERMAL MODEL
*CONTROL_TERMINATION
$$  ENDTIM    ENDCYC     DTMIN    ENDENG    ENDMAS
5.0000E-03         0       0.0       0.0       0.0
*CONTROL_SOLUTION
$ 0 - structural, 1 - thermal, 2 - coupled
1
*CONTROL_THERMAL_SOLVER
$ transient analysis = 1 (SS = 0)
$ linear problem
$ 1 - direct symm solver, 2 - non-symm direct, 3 - iterative, 4 - iterative (?)
$ convergence tolerance
$ Gauss points / element
1,0,3,0.0000001,8
$ THERMAL ADDITION
*CONTROL_THERMAL_TIMESTEP
$ dt is the third option here
$ 0 - fixed, 1 - variable; 0.5 - Crank-Nich scheme, 1.0 - fully implicit
0,0.5,1.0e-6,1e-7,1e-5,0.0,0.0
*DATABASE_BINARY_D3PLOT
$ time step to save thermal data -> d3plot files
$ DT/CYCL      LCDT      BEAM     NPLTC
5.0000E-05         0         0         0
*INCLUDE
/home/mlp6/thermal/therm74nodes.dyn
*MAT_ELASTIC
1,1.0,10000.0,0.499,0.0,0.0,0.0
*MAT_THERMAL_ISOTROPIC
$ tissue thermal properties; entry definitions below
$ id, thermal density, rate curve, thermal heat generation
$ heat capacity, thermal conductivity
$ BE CAREFUL - thermal heat generation is in addition to any
$ defined in the load card!!
3,1.0,0,0.0
1.00382,0.001434
*PART
                                                                                
1,1,1,0,0,0,0,3
*SECTION_SOLID
         1         0         4
*INCLUDE
/home/mlp6/thermal/therm74elems.dyn
$ insert *SET_SOLID cards here; generated by create_heat_sources.m
*SET_SOLID 
88804 
89386 
90764 
91346 
*SET_SOLID 
93 
88803 
89386 
88804 
89387 
90763 
91346 
90764 
91347 
*SET_SOLID 
94 
89388 
89386 
91348 
91346 
*SET_SOLID 
95 
89388 
89389 
89387 
89386 
91348 
91349 
91347 
91346 
*SET_SOLID 
96 
90766 
90764 
92726 
92724 
*SET_SOLID 
97 
90764 
91346 
92724 
93306 
*SET_SOLID 
98 
90763 
91346 
90764 
91347 
92723 
93306 
92724 
93307 
*SET_SOLID 
99 
90772 
91347 
90763 
91342 
92732 
93307 
92723 
93302 
*SET_SOLID 
100 
91348 
91346 
93308 
93306 
*SET_SOLID 
101 
92724 
93306 
94684 
95266 
*SET_SOLID 
102 
92723 
93306 
92724 
93307 
94683 
95266 
94684 
95267 
*SET_SOLID 
103 
92732 
93307 
92723 
93302 
94692 
95267 
94683 
95262 
*SET_SOLID 
104 
94684 
95266 
96644 
97226 
*SET_SOLID 
105 
94683 
95266 
94684 
95267 
96643 
97226 
96644 
97227 
*SET_SOLID 
106 
94692 
95267 
94683 
95262 
96652 
97227 
96643 
97222 
*SET_SOLID 
107 
96644 
97226 
98604 
99186 
*SET_SOLID 
108 
96643 
97226 
96644 
97227 
98603 
99186 
98604 
99187 
*SET_SOLID 
109 
98606 
98604 
100566 
100564 
*SET_SOLID 
110 
98604 
99186 
100564 
101146 
*SET_SOLID 
111 
98603 
99186 
98604 
99187 
100563 
101146 
100564 
101147 
*SET_SOLID 
112 
99188 
99186 
101148 
101146 
*SET_SOLID 
113 
100565 
100566 
100564 
100563 
102525 
102526 
102524 
102523 
*SET_SOLID 
114 
100566 
100564 
102526 
102524 
*SET_SOLID 
115 
100564 
101146 
102524 
103106 
*SET_SOLID 
116 
100563 
101146 
100564 
101147 
102523 
103106 
102524 
103107 
*SET_SOLID 
117 
101148 
101146 
103108 
103106 
*SET_SOLID 
118 
101148 
101149 
101147 
101146 
103108 
103109 
103107 
103106 
*SET_SOLID 
119 
102525 
102526 
102524 
102523 
104485 
104486 
104484 
104483 
*SET_SOLID 
120 
102526 
102524 
104486 
104484 
*SET_SOLID 
121 
102524 
103106 
104484 
105066 
*SET_SOLID 
122 
102523 
103106 
102524 
103107 
104483 
105066 
104484 
105067 
*SET_SOLID 
123 
103108 
103106 
105068 
105066 
*SET_SOLID 
124 
103108 
103109 
103107 
103106 
105068 
105069 
105067 
105066 
*SET_SOLID 
125 
104485 
104486 
104484 
104483 
106445 
106446 
106444 
106443 
*SET_SOLID 
126 
104486 
104484 
106446 
106444 
*SET_SOLID 
127 
104490 
104486 
106450 
106446 
*SET_SOLID 
128 
104484 
105066 
106444 
107026 
*SET_SOLID 
129 
104483 
105066 
104484 
105067 
106443 
107026 
106444 
107027 
*SET_SOLID 
130 
105057 
105068 
107017 
107028 
*SET_SOLID 
131 
105068 
105066 
107028 
107026 
*SET_SOLID 
132 
105068 
105069 
105067 
105066 
107028 
107029 
107027 
107026 
*SET_SOLID 
133 
106445 
106446 
106444 
106443 
108405 
108406 
108404 
108403 
*SET_SOLID 
134 
106446 
106444 
108406 
108404 
*SET_SOLID 
135 
106450 
106446 
108410 
108406 
*SET_SOLID 
136 
106444 
107026 
108404 
108986 
*SET_SOLID 
137 
106443 
107026 
106444 
107027 
108403 
108986 
108404 
108987 
*SET_SOLID 
138 
107017 
107028 
108977 
108988 
*SET_SOLID 
139 
107028 
107026 
108988 
108986 
*SET_SOLID 
140 
107028 
107029 
107027 
107026 
108988 
108989 
108987 
108986 
*SET_SOLID 
141 
108405 
108406 
108404 
108403 
110365 
110366 
110364 
110363 
*SET_SOLID 
142 
108406 
108404 
110366 
110364 
*SET_SOLID 
143 
108410 
108406 
110370 
110366 
*SET_SOLID 
144 
108404 
108986 
110364 
110946 
*SET_SOLID 
145 
108403 
108986 
108404 
108987 
110363 
110946 
110364 
110947 
*SET_SOLID 
146 
108977 
108988 
110937 
110948 
*SET_SOLID 
147 
108988 
108986 
110948 
110946 
*SET_SOLID 
148 
108988 
108989 
108987 
108986 
110948 
110949 
110947 
110946 
*SET_SOLID 
149 
110365 
110366 
110364 
110363 
112325 
112326 
112324 
112323 
*SET_SOLID 
150 
110366 
110364 
112326 
112324 
*SET_SOLID 
151 
110368 
110370 
110366 
110365 
112328 
112330 
112326 
112325 
*SET_SOLID 
152 
110370 
110366 
112330 
112326 
*SET_SOLID 
153 
110364 
110946 
112324 
112906 
*SET_SOLID 
154 
110363 
110946 
110364 
110947 
112323 
112906 
112324 
112907 
*SET_SOLID 
155 
110937 
110948 
112897 
112908 
*SET_SOLID 
156 
110948 
110946 
112908 
112906 
*SET_SOLID 
157 
110937 
110939 
110949 
110948 
112897 
112899 
112909 
112908 
*SET_SOLID 
158 
110948 
110949 
110947 
110946 
112908 
112909 
112907 
112906 
*SET_SOLID 
159 
112325 
112326 
112324 
112323 
114285 
114286 
114284 
114283 
*SET_SOLID 
160 
112326 
112324 
114286 
114284 
*SET_SOLID 
161 
112328 
112330 
112326 
112325 
114288 
114290 
114286 
114285 
*SET_SOLID 
162 
112330 
112326 
114290 
114286 
*SET_SOLID 
163 
112324 
112906 
114284 
114866 
*SET_SOLID 
164 
112323 
112906 
112324 
112907 
114283 
114866 
114284 
114867 
*SET_SOLID 
165 
112897 
112908 
114857 
114868 
*SET_SOLID 
166 
112908 
112906 
114868 
114866 
*SET_SOLID 
167 
112897 
112899 
112909 
112908 
114857 
114859 
114869 
114868 
*SET_SOLID 
168 
112908 
112909 
112907 
112906 
114868 
114869 
114867 
114866 
*SET_SOLID 
169 
114285 
114286 
114284 
114283 
116245 
116246 
116244 
116243 
*SET_SOLID 
170 
114286 
114284 
116246 
116244 
*SET_SOLID 
171 
114289 
114290 
116249 
116250 
*SET_SOLID 
172 
114288 
114290 
114286 
114285 
116248 
116250 
116246 
116245 
*SET_SOLID 
173 
114290 
114286 
116250 
116246 
*SET_SOLID 
174 
114856 
114857 
116816 
116817 
*SET_SOLID 
175 
114284 
114866 
116244 
116826 
*SET_SOLID 
176 
114283 
114866 
114284 
114867 
116243 
116826 
116244 
116827 
*SET_SOLID 
177 
114857 
114868 
116817 
116828 
*SET_SOLID 
178 
114868 
114866 
116828 
116826 
*SET_SOLID 
179 
114857 
114859 
114869 
114868 
116817 
116819 
116829 
116828 
*SET_SOLID 
180 
114868 
114869 
114867 
114866 
116828 
116829 
116827 
116826 
*SET_SOLID 
181 
116245 
116246 
116244 
116243 
118205 
118206 
118204 
118203 
*SET_SOLID 
182 
116246 
116244 
118206 
118204 
*SET_SOLID 
183 
116249 
116250 
118209 
118210 
*SET_SOLID 
184 
116248 
116250 
116246 
116245 
118208 
118210 
118206 
118205 
*SET_SOLID 
185 
116250 
116246 
118210 
118206 
*SET_SOLID 
186 
116816 
116817 
118776 
118777 
*SET_SOLID 
187 
116244 
116826 
118204 
118786 
*SET_SOLID 
188 
116243 
116826 
116244 
116827 
118203 
118786 
118204 
118787 
*SET_SOLID 
189 
116817 
116828 
118777 
118788 
*SET_SOLID 
190 
116828 
116826 
118788 
118786 
*SET_SOLID 
191 
116817 
116819 
116829 
116828 
118777 
118779 
118789 
118788 
*SET_SOLID 
192 
116828 
116829 
116827 
116826 
118788 
118789 
118787 
118786 
*SET_SOLID 
193 
118205 
118206 
118204 
118203 
120165 
120166 
120164 
120163 
*SET_SOLID 
194 
118206 
118204 
120166 
120164 
*SET_SOLID 
195 
118209 
118210 
120169 
120170 
*SET_SOLID 
196 
118207 
118209 
118210 
118208 
120167 
120169 
120170 
120168 
*SET_SOLID 
197 
118208 
118210 
118206 
118205 
120168 
120170 
120166 
120165 
*SET_SOLID 
198 
118210 
118206 
120170 
120166 
*SET_SOLID 
199 
118776 
118777 
120736 
120737 
*SET_SOLID 
200 
118776 
118778 
118779 
118777 
120736 
120738 
120739 
120737 
*SET_SOLID 
201 
118204 
118786 
120164 
120746 
*SET_SOLID 
202 
118203 
118786 
118204 
118787 
120163 
120746 
120164 
120747 
*SET_SOLID 
203 
118777 
118788 
120737 
120748 
*SET_SOLID 
204 
118788 
118786 
120748 
120746 
*SET_SOLID 
205 
118777 
118779 
118789 
118788 
120737 
120739 
120749 
120748 
*SET_SOLID 
206 
118788 
118789 
118787 
118786 
120748 
120749 
120747 
120746 
*SET_SOLID 
207 
120165 
120166 
120164 
120163 
122125 
122126 
122124 
122123 
*SET_SOLID 
208 
120166 
120164 
122126 
122124 
*SET_SOLID 
209 
120138 
120169 
122098 
122129 
*SET_SOLID 
210 
120169 
120170 
122129 
122130 
*SET_SOLID 
211 
120167 
120169 
120170 
120168 
122127 
122129 
122130 
122128 
*SET_SOLID 
212 
120168 
120170 
120166 
120165 
122128 
122130 
122126 
122125 
*SET_SOLID 
213 
120170 
120166 
122130 
122126 
*SET_SOLID 
214 
120736 
120737 
122696 
122697 
*SET_SOLID 
215 
120736 
120738 
120739 
120737 
122696 
122698 
122699 
122697 
*SET_SOLID 
216 
120740 
120736 
122700 
122696 
*SET_SOLID 
217 
120164 
120746 
122124 
122706 
*SET_SOLID 
218 
120163 
120746 
120164 
120747 
122123 
122706 
122124 
122707 
*SET_SOLID 
219 
120737 
120748 
122697 
122708 
*SET_SOLID 
220 
120748 
120746 
122708 
122706 
*SET_SOLID 
221 
120737 
120739 
120749 
120748 
122697 
122699 
122709 
122708 
*SET_SOLID 
222 
120748 
120749 
120747 
120746 
122708 
122709 
122707 
122706 
*SET_SOLID 
223 
122125 
122126 
122124 
122123 
124085 
124086 
124084 
124083 
*SET_SOLID 
224 
122126 
122124 
124086 
124084 
*SET_SOLID 
225 
122098 
122129 
124058 
124089 
*SET_SOLID 
226 
122129 
122130 
124089 
124090 
*SET_SOLID 
227 
122127 
122129 
122130 
122128 
124087 
124089 
124090 
124088 
*SET_SOLID 
228 
122128 
122130 
122126 
122125 
124088 
124090 
124086 
124085 
*SET_SOLID 
229 
122130 
122126 
124090 
124086 
*SET_SOLID 
230 
122696 
122697 
124656 
124657 
*SET_SOLID 
231 
122696 
122698 
122699 
122697 
124656 
124658 
124659 
124657 
*SET_SOLID 
232 
122700 
122696 
124660 
124656 
*SET_SOLID 
233 
122124 
122706 
124084 
124666 
*SET_SOLID 
234 
122697 
122708 
124657 
124668 
*SET_SOLID 
235 
122708 
122706 
124668 
124666 
*SET_SOLID 
236 
122697 
122699 
122709 
122708 
124657 
124659 
124669 
124668 
*SET_SOLID 
237 
122708 
122709 
122707 
122706 
124668 
124669 
124667 
124666 
*SET_SOLID 
238 
124086 
124084 
126046 
126044 
*SET_SOLID 
239 
124058 
124089 
126018 
126049 
*SET_SOLID 
240 
124089 
124090 
126049 
126050 
*SET_SOLID 
241 
124087 
124089 
124090 
124088 
126047 
126049 
126050 
126048 
*SET_SOLID 
242 
124090 
124086 
126050 
126046 
*SET_SOLID 
243 
124656 
124657 
126616 
126617 
*SET_SOLID 
244 
124656 
124658 
124659 
124657 
126616 
126618 
126619 
126617 
*SET_SOLID 
245 
124660 
124656 
126620 
126616 
*SET_SOLID 
246 
124084 
124666 
126044 
126626 
*SET_SOLID 
247 
124657 
124668 
126617 
126628 
*SET_SOLID 
248 
124668 
124666 
126628 
126626 
*SET_SOLID 
249 
126018 
126014 
127978 
127974 
*SET_SOLID 
250 
126046 
126044 
128006 
128004 
*SET_SOLID 
251 
126018 
126049 
127978 
128009 
*SET_SOLID 
252 
126049 
126050 
128009 
128010 
*SET_SOLID 
253 
126050 
126046 
128010 
128006 
*SET_SOLID 
254 
126616 
126617 
128576 
128577 
*SET_SOLID 
255 
126620 
126616 
128580 
128576 
*SET_SOLID 
256 
126044 
126626 
128004 
128586 
*SET_SOLID 
257 
126617 
126628 
128577 
128588 
*SET_SOLID 
258 
126628 
126626 
128588 
128586 
*SET_SOLID 
259 
126620 
126652 
128580 
128612 
*SET_SOLID 
260 
127978 
127974 
129938 
129934 
*SET_SOLID 
261 
128006 
128004 
129966 
129964 
*SET_SOLID 
262 
127978 
128009 
129938 
129969 
*SET_SOLID 
263 
128009 
128010 
129969 
129970 
*SET_SOLID 
264 
128010 
128006 
129970 
129966 
*SET_SOLID 
265 
128576 
128577 
130536 
130537 
*SET_SOLID 
266 
128580 
128576 
130540 
130536 
*SET_SOLID 
267 
128004 
128586 
129964 
130546 
*SET_SOLID 
268 
128003 
128586 
128004 
128587 
129963 
130546 
129964 
130547 
*SET_SOLID 
269 
128577 
128588 
130537 
130548 
*SET_SOLID 
270 
128588 
128586 
130548 
130546 
*SET_SOLID 
271 
128580 
128612 
130540 
130572 
*SET_SOLID 
272 
129938 
129934 
131898 
131894 
*SET_SOLID 
273 
129966 
129964 
131926 
131924 
*SET_SOLID 
274 
129938 
129969 
131898 
131929 
*SET_SOLID 
275 
129969 
129970 
131929 
131930 
*SET_SOLID 
276 
129970 
129966 
131930 
131926 
*SET_SOLID 
277 
130536 
130537 
132496 
132497 
*SET_SOLID 
278 
130540 
130536 
132500 
132496 
*SET_SOLID 
279 
129964 
130546 
131924 
132506 
*SET_SOLID 
280 
130537 
130548 
132497 
132508 
*SET_SOLID 
281 
130548 
130546 
132508 
132506 
*SET_SOLID 
282 
130540 
130572 
132500 
132532 
*SET_SOLID 
283 
131898 
131894 
133858 
133854 
*SET_SOLID 
284 
131926 
131924 
133886 
133884 
*SET_SOLID 
285 
131898 
131929 
133858 
133889 
*SET_SOLID 
286 
131929 
131930 
133889 
133890 
*SET_SOLID 
287 
131930 
131926 
133890 
133886 
*SET_SOLID 
288 
132496 
132497 
134456 
134457 
*SET_SOLID 
289 
132500 
132496 
134460 
134456 
*SET_SOLID 
290 
131924 
132506 
133884 
134466 
*SET_SOLID 
291 
132497 
132508 
134457 
134468 
*SET_SOLID 
292 
132508 
132506 
134468 
134466 
*SET_SOLID 
293 
132500 
132532 
134460 
134492 
*SET_SOLID 
294 
133854 
133855 
135814 
135815 
*SET_SOLID 
295 
133858 
133854 
135818 
135814 
*SET_SOLID 
296 
133886 
133884 
135846 
135844 
*SET_SOLID 
297 
133858 
133889 
135818 
135849 
*SET_SOLID 
298 
133889 
133890 
135849 
135850 
*SET_SOLID 
299 
133890 
133886 
135850 
135846 
*SET_SOLID 
300 
134456 
134457 
136416 
136417 
*SET_SOLID 
301 
134460 
134456 
136420 
136416 
*SET_SOLID 
302 
133884 
134466 
135844 
136426 
*SET_SOLID 
303 
134457 
134468 
136417 
136428 
*SET_SOLID 
304 
134468 
134466 
136428 
136426 
*SET_SOLID 
305 
134460 
134492 
136420 
136452 
*SET_SOLID 
306 
134492 
134490 
136452 
136450 
*SET_SOLID 
307 
135814 
135815 
137774 
137775 
*SET_SOLID 
308 
135818 
135814 
137778 
137774 
*SET_SOLID 
309 
135846 
135844 
137806 
137804 
*SET_SOLID 
310 
135818 
135849 
137778 
137809 
*SET_SOLID 
311 
135849 
135850 
137809 
137810 
*SET_SOLID 
312 
135850 
135846 
137810 
137806 
*SET_SOLID 
313 
136416 
136417 
138376 
138377 
*SET_SOLID 
314 
136420 
136416 
138380 
138376 
*SET_SOLID 
315 
135844 
136426 
137804 
138386 
*SET_SOLID 
316 
136417 
136428 
138377 
138388 
*SET_SOLID 
317 
136428 
136426 
138388 
138386 
*SET_SOLID 
318 
136420 
136452 
138380 
138412 
*SET_SOLID 
319 
136452 
136450 
138412 
138410 
*SET_SOLID 
320 
137774 
137775 
139734 
139735 
*SET_SOLID 
321 
137778 
137774 
139738 
139734 
*SET_SOLID 
322 
137806 
137804 
139766 
139764 
*SET_SOLID 
323 
137778 
137809 
139738 
139769 
*SET_SOLID 
324 
137809 
137810 
139769 
139770 
*SET_SOLID 
325 
137810 
137806 
139770 
139766 
*SET_SOLID 
326 
138376 
138377 
140336 
140337 
*SET_SOLID 
327 
138380 
138376 
140340 
140336 
*SET_SOLID 
328 
137804 
138386 
139764 
140346 
*SET_SOLID 
329 
138377 
138388 
140337 
140348 
*SET_SOLID 
330 
138388 
138386 
140348 
140346 
*SET_SOLID 
331 
138380 
138412 
140340 
140372 
*SET_SOLID 
332 
138412 
138410 
140372 
140370 
*SET_SOLID 
333 
139734 
139735 
141694 
141695 
*SET_SOLID 
334 
139738 
139734 
141698 
141694 
*SET_SOLID 
335 
139766 
139764 
141726 
141724 
*SET_SOLID 
336 
139738 
139769 
141698 
141729 
*SET_SOLID 
337 
139769 
139770 
141729 
141730 
*SET_SOLID 
338 
139770 
139766 
141730 
141726 
*SET_SOLID 
339 
140336 
140337 
142296 
142297 
*SET_SOLID 
340 
140340 
140336 
142300 
142296 
*SET_SOLID 
341 
139764 
140346 
141724 
142306 
*SET_SOLID 
342 
140337 
140348 
142297 
142308 
*SET_SOLID 
343 
140348 
140346 
142308 
142306 
*SET_SOLID 
344 
140340 
140372 
142300 
142332 
*SET_SOLID 
345 
140372 
140370 
142332 
142330 
*SET_SOLID 
346 
141694 
141695 
143654 
143655 
*SET_SOLID 
347 
141698 
141694 
143658 
143654 
*SET_SOLID 
348 
141695 
141706 
143655 
143666 
*SET_SOLID 
349 
141726 
141724 
143686 
143684 
*SET_SOLID 
350 
141698 
141729 
143658 
143689 
*SET_SOLID 
351 
141729 
141730 
143689 
143690 
*SET_SOLID 
352 
141730 
141726 
143690 
143686 
*SET_SOLID 
353 
142296 
142297 
144256 
144257 
*SET_SOLID 
354 
142300 
142296 
144260 
144256 
*SET_SOLID 
355 
141724 
142306 
143684 
144266 
*SET_SOLID 
356 
142297 
142308 
144257 
144268 
*SET_SOLID 
357 
142308 
142306 
144268 
144266 
*SET_SOLID 
358 
142330 
142327 
144290 
144287 
*SET_SOLID 
359 
142300 
142332 
144260 
144292 
*SET_SOLID 
360 
142332 
142330 
144292 
144290 
*SET_SOLID 
361 
143654 
143655 
145614 
145615 
*SET_SOLID 
362 
143655 
143666 
145615 
145626 
*SET_SOLID 
363 
143686 
143684 
145646 
145644 
*SET_SOLID 
364 
143658 
143689 
145618 
145649 
*SET_SOLID 
365 
143690 
143686 
145650 
145646 
*SET_SOLID 
366 
144260 
144256 
146220 
146216 
*SET_SOLID 
367 
143684 
144266 
145644 
146226 
*SET_SOLID 
368 
144257 
144268 
146217 
146228 
*SET_SOLID 
369 
144268 
144266 
146228 
146226 
*SET_SOLID 
370 
144290 
144287 
146250 
146247 
*SET_SOLID 
371 
144292 
144290 
146252 
146250 
*SET_SOLID 
372 
145615 
145626 
147575 
147586 
*SET_SOLID 
373 
145646 
145644 
147606 
147604 
*SET_SOLID 
374 
145644 
146226 
147604 
148186 
*SET_SOLID 
375 
146228 
146226 
148188 
148186 
*SET_SOLID 
376 
146250 
146247 
148210 
148207 
$ set BCs for the top (transducer) surface
*INCLUDE
/home/mlp6/thermal/therm74bc.dyn
$$$$ HEAT GENERATION SETS $$$$
$ I=1000 W/cm^2 -> 198.376
$ set ID, load curve ID, I
$ these heat loads are generated along with the *SET_SOLID cards by 
$ create_heat_sources.m
*LOAD_HEAT_GENERATION_SET 
*DEFINE_CURVE
$ load curve for applying the heat sources
         1         0       1.0       1.0       0.0       0.0         0
                 0.0                 1.0
2.80000000000000E-05                 1.0
2.90000000000000E-05                 0.0
1.77000000000000E-04                 0.0
1.78000000000000E-04                 1.0
2.06000000000000E-04                 1.0
2.07000000000000E-04                 0.0
3.55000000000000E-04                 0.0
3.56000000000000E-04                 1.0
3.84000000000000E-04                 1.0
3.85000000000000E-04                 0.0
5.33000000000000E-04                 0.0
5.34000000000000E-04                 1.0
5.62000000000000E-04                 1.0
5.63000000000000E-04                 0.0
7.11000000000000E-04                 0.0
7.12000000000000E-04                 1.0
7.40000000000000E-04                 1.0
7.41000000000000E-04                 0.0
$ ... 6 like lines cut
*END
