*KEYWORD MEM GOES HERE         
*TITLE
MODEL TITLE GOES HERE
$ COMMENTS WITH $
*CONTROL_TERMINATION
*CONTROL_SOLUTION
*CONTROL_THERMAL_SOLVER
*CONTROL_TIMESTEP
*CONTROL_THERMAL_TIMESTEP
*CONTROL_HOURGLASS
*DATABASE_BINARY_D3PLOT
*NODE
*MAT_THERMAL_ISOTROPIC
*PART
*PART
*SECTION_SOLID
*ELEMENT_SOLID
*BOUNDARY_TEMPERATURE_NODE 
*INITIAL_TEMPERATURE_NODE
*DEFINE_CURVE
*END
