*KEYWORD
*TITLE
THERMAL MODEL
*CONTROL_TERMINATION
5.0,0,0.0,0.0,0.0
*CONTROL_SOLUTION
1
*CONTROL_THERMAL_SOLVER
1,0,3,0.0000001,8
*CONTROL_THERMAL_TIMESTEP
0,0.5,1.0e-1,1e-0,1e+1,0.0,0.0
*DATABASE_BINARY_D3PLOT
0.0001,0,0,0
*INCLUDE
./nodes.dyn
*MAT_ELASTIC
1,1.0,10000.0,0.499,0.0,0.0,0.0
*MAT_THERMAL_ISOTROPIC
3,1.0,0,0.0
1.00382,0.000717
*PART

1,1,1,0,0,0,0,3
*SECTION_SOLID
1,0,4
*INCLUDE
./elems.dyn
*INCLUDE
./InitTemps.dyn
*END
