 THERMAL MODEL                                                           
                         ls-dyna smp.113151 d           date 01/19/2017


 **********************************************************************

     time =  0.0000E+00     time step =  1.0000E-02     thermal step no.=     0

     minimum temperature =   0.0000E+00   at node       45
     maximum temperature =   2.7300E-02   at node       21

*TEMPERATURE_NODE     numnode=        45   thkshl=         0
  node   temperature      x-flux      y-flux      z-flux

       1  0.0000E+00  0.0000E+00  0.0000E+00  0.0000E+00
       2  0.0000E+00  0.0000E+00  0.0000E+00  0.0000E+00
       3  0.0000E+00  0.0000E+00  0.0000E+00  0.0000E+00
       4  0.0000E+00  0.0000E+00  0.0000E+00  0.0000E+00
       5  0.0000E+00  0.0000E+00  0.0000E+00  0.0000E+00
       6  0.0000E+00  0.0000E+00  0.0000E+00  0.0000E+00
       7  0.0000E+00  0.0000E+00  0.0000E+00  0.0000E+00
       8  0.0000E+00  0.0000E+00  0.0000E+00  0.0000E+00
       9  0.0000E+00  0.0000E+00  0.0000E+00  0.0000E+00
      10  0.0000E+00  0.0000E+00  0.0000E+00  0.0000E+00
      11  0.0000E+00  0.0000E+00  0.0000E+00  0.0000E+00
      12  0.0000E+00  0.0000E+00  0.0000E+00  0.0000E+00
      13  0.0000E+00  0.0000E+00  0.0000E+00  0.0000E+00
      14  0.0000E+00  0.0000E+00  0.0000E+00  0.0000E+00
      15  0.0000E+00  0.0000E+00  0.0000E+00  0.0000E+00
      16  0.0000E+00  0.0000E+00  0.0000E+00  0.0000E+00
      17  0.0000E+00  0.0000E+00  0.0000E+00  0.0000E+00
      18  0.0000E+00  0.0000E+00  0.0000E+00  0.0000E+00
      19  0.0000E+00  0.0000E+00  0.0000E+00  0.0000E+00
      20  7.1900E-03  0.0000E+00  0.0000E+00  0.0000E+00
      21  2.7300E-02  0.0000E+00  0.0000E+00  0.0000E+00
      22  0.0000E+00  0.0000E+00  0.0000E+00  0.0000E+00
      23  0.0000E+00  0.0000E+00  0.0000E+00  0.0000E+00
      24  0.0000E+00  0.0000E+00  0.0000E+00  0.0000E+00
      25  0.0000E+00  0.0000E+00  0.0000E+00  0.0000E+00
      26  0.0000E+00  0.0000E+00  0.0000E+00  0.0000E+00
      27  0.0000E+00  0.0000E+00  0.0000E+00  0.0000E+00
      28  0.0000E+00  0.0000E+00  0.0000E+00  0.0000E+00
      29  0.0000E+00  0.0000E+00  0.0000E+00  0.0000E+00
      30  1.6900E-03  0.0000E+00  0.0000E+00  0.0000E+00
      31  0.0000E+00  0.0000E+00  0.0000E+00  0.0000E+00
      32  0.0000E+00  0.0000E+00  0.0000E+00  0.0000E+00
      33  0.0000E+00  0.0000E+00  0.0000E+00  0.0000E+00
      34  0.0000E+00  0.0000E+00  0.0000E+00  0.0000E+00
      35  0.0000E+00  0.0000E+00  0.0000E+00  0.0000E+00
      36  0.0000E+00  0.0000E+00  0.0000E+00  0.0000E+00
      37  0.0000E+00  0.0000E+00  0.0000E+00  0.0000E+00
      38  0.0000E+00  0.0000E+00  0.0000E+00  0.0000E+00
      39  0.0000E+00  0.0000E+00  0.0000E+00  0.0000E+00
      40  0.0000E+00  0.0000E+00  0.0000E+00  0.0000E+00
      41  0.0000E+00  0.0000E+00  0.0000E+00  0.0000E+00
      42  0.0000E+00  0.0000E+00  0.0000E+00  0.0000E+00
      43  0.0000E+00  0.0000E+00  0.0000E+00  0.0000E+00
      44  0.0000E+00  0.0000E+00  0.0000E+00  0.0000E+00
      45  0.0000E+00  0.0000E+00  0.0000E+00  0.0000E+00

*TEMPERATURE_PART       npart=         1
    part temperature
       1  6.7766E-04

 WARNING: Surfaces with temperature boundary conditions are not included
          in the heat transfer data below. Therefore, an overall energy
          balance may not sum to 0.

 The PART is the frame of reference for boundary condition segment
 set heat transfer data. Positive heat flow is into the part and negative
 heat flow is out of the part.

 energy == energy over this time step of length dt=  0.000000E+00

*ENERGY_BOUNDARY         nfbc=         0     ncbc=         0     nrbc=         0
   bc type   seg set   [energy/time]        [energy]       T_average
                         -----------     -----------
          energy sum      0.0000E+00      0.0000E+00


*ENERGY_PART            npart=         1
    part #  Qgen_chg[energy]  IE_chg[energy]
         1      0.0000E+00      0.0000E+00
               -----------     -----------
                0.0000E+00      0.0000E+00

 number of solution iterations  =    0

 QA temperature norm, Tmin, Tmax=   2.828148E-02   0.000000E+00   2.730000E-02


 **********************************************************************

     time =  3.0000E-02     time step =  1.0000E-02     thermal step no.=     3

     minimum temperature =   7.6232E-12   at node        7
     maximum temperature =   2.7294E-02   at node       21

*TEMPERATURE_NODE     numnode=        45   thkshl=         0
  node   temperature      x-flux      y-flux      z-flux

       1  1.5048E-11 -2.8469E-16  5.3233E-15 -2.9446E-10
       2  1.5246E-11 -5.3233E-15  5.6079E-15 -5.5903E-10
       3  2.2472E-11 -1.0362E-14  1.5970E-14 -2.9445E-10
       4  1.1335E-11 -4.9031E-20  5.3233E-15 -1.4723E-10
       5  1.1335E-11 -1.0520E-21  2.8040E-15 -4.2674E-10
       6  1.1335E-11  4.6927E-20  5.3233E-15 -7.0627E-10
       7  7.6232E-12 -5.3233E-15  5.3234E-15 -5.4881E-15
       8  1.1335E-11 -5.3233E-15  1.0243E-19 -3.2964E-16
       9  1.5048E-11 -5.3233E-15 -5.3233E-15  4.8289E-15
      10  2.0536E-07 -2.6457E-10  1.4724E-10 -5.6530E-15
      11  3.8986E-07 -1.6498E-16  1.3230E-10 -5.1541E-06
      12  2.0536E-07  2.6457E-10 -4.1180E-10 -1.9570E-05
      13  1.0268E-07 -2.7951E-10  1.4723E-10 -1.4723E-10
      14  2.9760E-07 -2.7952E-10  2.7952E-10 -2.8817E-10
      15  4.9253E-07 -2.7952E-10  1.4723E-10 -1.6454E-10
      16  1.1450E-11 -1.6482E-16  1.4723E-10 -5.6528E-15
      17  1.1565E-11 -1.6477E-16  4.2674E-10 -3.1335E-15
      18  1.1680E-11 -1.6472E-16  7.0627E-10 -5.6528E-15
      19  2.2932E-11 -1.0308E-05 -2.9445E-10 -8.2385E-16
      20  7.1884E-03 -1.9570E-05  1.0308E-05 -3.2956E-16
      21  2.7294E-02 -2.8831E-05  3.9139E-05 -1.2115E-06
      22  2.0536E-07 -2.8187E-10  5.3234E-15 -3.2954E-16
      23  4.0192E-07 -1.7304E-11  5.1541E-06 -1.7304E-11
      24  2.2949E-07  2.4727E-10  1.9570E-05 -3.2956E-16
      25  1.5507E-11 -2.8470E-16  2.9446E-10 -4.9431E-16
      26  1.5706E-11 -5.3233E-15  5.7634E-10 -3.2954E-16
      27  2.2932E-11 -1.0362E-14  3.2906E-10 -8.2385E-16
      28  2.0536E-07 -2.6457E-10  1.4724E-10  4.9939E-15
      29  3.8986E-07 -1.2115E-06  9.7689E-11  5.1540E-06
      30  1.6898E-03 -2.4226E-06  2.4225E-06  1.9570E-05
      31  1.0268E-07 -3.1412E-10  1.4723E-10  1.4723E-10
      32  3.2173E-07 -2.7952E-10  2.7952E-10  2.7087E-10
      33  4.9253E-07 -2.4492E-10  1.2116E-06  1.2993E-10
      34  1.2140E-11  1.6472E-16  1.4723E-10  4.9938E-15
      35  1.2025E-11 -4.9431E-16  4.6135E-10  2.4745E-15
      36  1.2829E-11 -1.1533E-15  7.0627E-10  4.9938E-15
      37  1.5967E-11 -6.9215E-11  5.3232E-15  2.9446E-10
      38  4.8283E-08 -5.3233E-15  3.4614E-11  4.8982E-10
      39  2.3391E-11  6.9204E-11 -6.9198E-11  2.4232E-06
      40  1.2255E-11 -3.4606E-11  5.3233E-15  1.4723E-10
      41  2.4145E-08 -3.4607E-11  3.4610E-11  4.2674E-10
      42  4.8279E-08 -3.4609E-11  5.3233E-15  6.3705E-10
      43  8.5424E-12 -5.3233E-15  5.3234E-15  5.1586E-15
      44  1.2255E-11 -5.3233E-15  3.4606E-11 -3.2945E-16
      45  1.5967E-11 -5.3233E-15  6.9209E-11 -4.4994E-15

*TEMPERATURE_PART       npart=         1
    part temperature
       1  6.7766E-04

 WARNING: Surfaces with temperature boundary conditions are not included
          in the heat transfer data below. Therefore, an overall energy
          balance may not sum to 0.

 The PART is the frame of reference for boundary condition segment
 set heat transfer data. Positive heat flow is into the part and negative
 heat flow is out of the part.

 energy == energy over this time step of length dt=  1.000000E-02

*ENERGY_BOUNDARY         nfbc=         0     ncbc=         0     nrbc=         0
   bc type   seg set   [energy/time]        [energy]       T_average
                         -----------     -----------
          energy sum      0.0000E+00      0.0000E+00


*ENERGY_PART            npart=         1
    part #  Qgen_chg[energy]  IE_chg[energy]
         1      0.0000E+00     -5.4735E-20
               -----------     -----------
                0.0000E+00     -5.4735E-20

 number of solution iterations  =    1

 QA temperature norm, Tmin, Tmax=   2.827504E-02   7.623165E-12   2.729376E-02


 **********************************************************************

     time =  5.0000E-02     time step =  1.0000E-02     thermal step no.=     5

     minimum temperature =   2.5408E-11   at node        7
     maximum temperature =   2.7290E-02   at node       21

*TEMPERATURE_NODE     numnode=        45   thkshl=         0
  node   temperature      x-flux      y-flux      z-flux

       1  5.0152E-11 -9.4884E-16  1.7741E-14 -4.9069E-10
       2  5.0814E-11 -1.7742E-14  1.8689E-14 -9.3157E-10
       3  7.4897E-11 -3.4534E-14  5.3224E-14 -4.9066E-10
       4  3.7781E-11 -4.9018E-19  1.7742E-14 -2.4534E-10
       5  3.7781E-11 -1.0468E-20  9.3452E-15 -7.1111E-10
       6  3.7781E-11  4.6925E-19  1.7742E-14 -1.1769E-09
       7  2.5408E-11 -1.7742E-14  1.7742E-14 -1.8291E-14
       8  3.7780E-11 -1.7742E-14  1.0241E-18 -1.0993E-15
       9  5.0152E-11 -1.7742E-14 -1.7741E-14  1.6094E-14
      10  3.4223E-07 -4.4088E-10  2.4537E-10 -1.8840E-14
      11  6.4968E-07 -5.4936E-16  2.2048E-10 -5.1533E-06
      12  3.4223E-07  4.4088E-10 -6.8622E-10 -1.9567E-05
      13  1.7112E-07 -4.6578E-10  2.4535E-10 -2.4535E-10
      14  4.9593E-07 -4.6580E-10  4.6580E-10 -4.8021E-10
      15  8.2077E-07 -4.6581E-10  2.4535E-10 -2.7419E-10
      16  3.8164E-11 -5.4963E-16  2.4533E-10 -1.8840E-14
      17  3.8547E-11 -5.4915E-16  7.1111E-10 -1.0444E-14
      18  3.8930E-11 -5.4867E-16  1.1769E-09 -1.8840E-14
      19  7.6429E-11 -1.0307E-05 -4.9065E-10 -2.7458E-15
      20  7.1873E-03 -1.9567E-05  1.0306E-05 -1.0984E-15
      21  2.7290E-02 -2.8827E-05  3.9133E-05 -1.2113E-06
      22  3.4223E-07 -4.6972E-10  1.7742E-14 -1.0984E-15
      23  6.6979E-07 -2.8835E-11  5.1533E-06 -2.8836E-11
      24  3.8245E-07  4.1205E-10  1.9567E-05 -1.0984E-15
      25  5.1684E-11 -9.4888E-16  4.9069E-10 -1.6475E-15
      26  5.2346E-11 -1.7742E-14  9.6040E-10 -1.0984E-15
      27  7.6429E-11 -3.4534E-14  5.4832E-10 -2.7458E-15
      28  3.4224E-07 -4.4088E-10  2.4538E-10  1.6643E-14
      29  6.4969E-07 -1.2113E-06  1.6281E-10  5.1532E-06
      30  1.6897E-03 -2.4221E-06  2.4219E-06  1.9567E-05
      31  1.7112E-07 -5.2345E-10  2.4535E-10  2.4535E-10
      32  5.3615E-07 -4.6580E-10  4.6580E-10  4.5138E-10
      33  8.2077E-07 -4.0814E-10  1.2115E-06  2.1652E-10
      34  4.0461E-11  5.4867E-16  2.4533E-10  1.6643E-14
      35  4.0079E-11 -1.6474E-15  7.6878E-10  8.2469E-15
      36  4.2759E-11 -3.8435E-15  1.1769E-09  1.6643E-14
      37  5.3216E-11 -1.1534E-10  1.7741E-14  4.9069E-10
      38  8.0486E-08 -1.7742E-14  5.7693E-11  8.1623E-10
      39  7.7960E-11  1.1531E-10 -1.1529E-10  2.4230E-06
      40  4.0844E-11 -5.7666E-11  1.7742E-14  2.4533E-10
      41  4.0254E-08 -5.7670E-11  5.7679E-11  7.1112E-10
      42  8.0473E-08 -5.7674E-11  1.7742E-14  1.0616E-09
      43  2.8472E-11 -1.7742E-14  1.7742E-14  1.7193E-14
      44  4.0844E-11 -1.7742E-14  5.7666E-11 -1.0974E-15
      45  5.3216E-11 -1.7742E-14  1.1532E-10 -1.4995E-14

*TEMPERATURE_PART       npart=         1
    part temperature
       1  6.7766E-04

 WARNING: Surfaces with temperature boundary conditions are not included
          in the heat transfer data below. Therefore, an overall energy
          balance may not sum to 0.

 The PART is the frame of reference for boundary condition segment
 set heat transfer data. Positive heat flow is into the part and negative
 heat flow is out of the part.

 energy == energy over this time step of length dt=  1.000000E-02

*ENERGY_BOUNDARY         nfbc=         0     ncbc=         0     nrbc=         0
   bc type   seg set   [energy/time]        [energy]       T_average
                         -----------     -----------
          energy sum      0.0000E+00      0.0000E+00


*ENERGY_PART            npart=         1
    part #  Qgen_chg[energy]  IE_chg[energy]
         1      0.0000E+00      1.4612E-19
               -----------     -----------
                0.0000E+00      1.4612E-19

 number of solution iterations  =    1

 QA temperature norm, Tmin, Tmax=   2.827074E-02   2.540815E-11   2.728960E-02


 **********************************************************************

     time =  6.0000E-02     time step =  1.0000E-02     thermal step no.=     6

     minimum temperature =   3.8110E-11   at node        7
     maximum temperature =   2.7288E-02   at node       21

*TEMPERATURE_NODE     numnode=        45   thkshl=         0
  node   temperature      x-flux      y-flux      z-flux

       1  7.5224E-11 -1.4232E-15  2.6609E-14 -5.8878E-10
       2  7.6216E-11 -2.6610E-14  2.8032E-14 -1.1178E-09
       3  1.1234E-10 -5.1798E-14  7.9830E-14 -5.8873E-10
       4  5.6668E-11 -9.8028E-19  2.6610E-14 -2.9437E-10
       5  5.6669E-11 -2.0927E-20  1.4017E-14 -8.5326E-10
       6  5.6668E-11  9.3843E-19  2.6610E-14 -1.4122E-09
       7  3.8110E-11 -2.6610E-14  2.6612E-14 -2.7435E-14
       8  5.6667E-11 -2.6610E-14  2.0480E-18 -1.6493E-15
       9  7.5224E-11 -2.6610E-14 -2.6609E-14  2.4138E-14
      10  4.1066E-07 -5.2902E-10  2.9443E-10 -2.8258E-14
      11  7.7957E-07 -8.2387E-16  2.6456E-10 -5.1529E-06
      12  4.1066E-07  5.2902E-10 -8.2339E-10 -1.9565E-05
      13  2.0534E-07 -5.5889E-10  2.9440E-10 -2.9440E-10
      14  5.9508E-07 -5.5891E-10  5.5891E-10 -5.7621E-10
      15  9.8485E-07 -5.5894E-10  2.9440E-10 -3.2900E-10
      16  5.7242E-11 -8.2462E-16  2.9437E-10 -2.8258E-14
      17  5.7817E-11 -8.2366E-16  8.5326E-10 -1.5664E-14
      18  5.8391E-11 -8.2270E-16  1.4122E-09 -2.8258E-14
      19  1.1464E-10 -1.0306E-05 -5.8872E-10 -4.1184E-15
      20  7.1868E-03 -1.9565E-05  1.0305E-05 -1.6475E-15
      21  2.7288E-02 -2.8824E-05  3.9130E-05 -1.2112E-06
      22  4.1066E-07 -5.6362E-10  2.6611E-14 -1.6474E-15
      23  8.0370E-07 -3.4599E-11  5.1529E-06 -3.4601E-11
      24  4.5892E-07  4.9442E-10  1.9565E-05 -1.6475E-15
      25  7.7522E-11 -1.4232E-15  5.8878E-10 -2.4711E-15
      26  7.8514E-11 -2.6610E-14  1.1524E-09 -1.6474E-15
      27  1.1464E-10 -5.1798E-14  6.5792E-10 -4.1184E-15
      28  4.1067E-07 -5.2902E-10  2.9444E-10  2.4963E-14
      29  7.7957E-07 -1.2112E-06  1.9537E-10  5.1528E-06
      30  1.6896E-03 -2.4218E-06  2.4215E-06  1.9565E-05
      31  2.0534E-07 -6.2809E-10  2.9440E-10  2.9440E-10
      32  6.4334E-07 -5.5891E-10  5.5891E-10  5.4161E-10
      33  9.8486E-07 -4.8974E-10  1.2115E-06  2.5980E-10
      34  6.0689E-11  8.2270E-16  2.9437E-10  2.4963E-14
      35  6.0115E-11 -2.4710E-15  9.2246E-10  1.2369E-14
      36  6.4135E-11 -5.7646E-15  1.4122E-09  2.4963E-14
      37  7.9819E-11 -1.3840E-10  2.6609E-14  5.8878E-10
      38  9.6592E-08 -2.6610E-14  6.9233E-11  9.7940E-10
      39  1.1693E-10  1.3835E-10 -1.3832E-10  2.4229E-06
      40  6.1263E-11 -6.9192E-11  2.6610E-14  2.9437E-10
      41  4.8312E-08 -6.9199E-11  6.9213E-11  8.5326E-10
      42  9.6573E-08 -6.9205E-11  2.6610E-14  1.2738E-09
      43  4.2706E-11 -2.6611E-14  2.6612E-14  2.5788E-14
      44  6.1263E-11 -2.6610E-14  6.9192E-11 -1.6455E-15
      45  7.9819E-11 -2.6610E-14  1.3837E-10 -2.2491E-14

*TEMPERATURE_PART       npart=         1
    part temperature
       1  6.7766E-04

 WARNING: Surfaces with temperature boundary conditions are not included
          in the heat transfer data below. Therefore, an overall energy
          balance may not sum to 0.

 The PART is the frame of reference for boundary condition segment
 set heat transfer data. Positive heat flow is into the part and negative
 heat flow is out of the part.

 energy == energy over this time step of length dt=  1.000000E-02

*ENERGY_BOUNDARY         nfbc=         0     ncbc=         0     nrbc=         0
   bc type   seg set   [energy/time]        [energy]       T_average
                         -----------     -----------
          energy sum      0.0000E+00      0.0000E+00


*ENERGY_PART            npart=         1
    part #  Qgen_chg[energy]  IE_chg[energy]
         1      0.0000E+00     -2.9398E-19
               -----------     -----------
                0.0000E+00     -2.9398E-19

 number of solution iterations  =    1

 QA temperature norm, Tmin, Tmax=   2.826860E-02   3.811042E-11   2.728753E-02


 **********************************************************************

     time =  9.0000E-02     time step =  1.0000E-02     thermal step no.=     9

     minimum temperature =   9.1452E-11   at node        7
     maximum temperature =   2.7281E-02   at node       21

*TEMPERATURE_NODE     numnode=        45   thkshl=         0
  node   temperature      x-flux      y-flux      z-flux

       1  1.8050E-10 -3.4149E-15  6.3846E-14 -8.8294E-10
       2  1.8289E-10 -6.3850E-14  6.7257E-14 -1.6763E-09
       3  2.6956E-10 -1.2429E-13  1.9155E-13 -8.8282E-10
       4  1.3598E-10 -4.1162E-18  6.3850E-14 -4.4144E-10
       5  1.3598E-10 -8.7840E-20  3.3633E-14 -1.2796E-09
       6  1.3598E-10  3.9405E-18  6.3850E-14 -2.1178E-09
       7  9.1452E-11 -6.3850E-14  6.3855E-14 -6.5831E-14
       8  1.3598E-10 -6.3850E-14  8.5996E-18 -3.9612E-15
       9  1.8050E-10 -6.3850E-14 -6.3846E-14  5.7917E-14
      10  6.1590E-07 -7.9335E-10  4.4157E-10 -6.7804E-14
      11  1.1691E-06 -1.9765E-15  3.9680E-10 -5.1517E-06
      12  6.1590E-07  7.9334E-10 -1.2348E-09 -1.9561E-05
      13  3.0797E-07 -8.3812E-10  4.4150E-10 -4.4150E-10
      14  8.9243E-07 -8.3818E-10  8.3818E-10 -8.6412E-10
      15  1.4770E-06 -8.3824E-10  4.4150E-10 -4.9339E-10
      16  1.3736E-10 -1.9804E-15  4.4144E-10 -6.7803E-14
      17  1.3874E-10 -1.9763E-15  1.2795E-09 -3.7586E-14
      18  1.4012E-10 -1.9723E-15  2.1178E-09 -6.7803E-14
      19  2.7507E-10 -1.0303E-05 -8.8281E-10 -9.8821E-15
      20  7.1851E-03 -1.9561E-05  1.0302E-05 -3.9532E-15
      21  2.7281E-02 -2.8818E-05  3.9120E-05 -1.2109E-06
      22  6.1590E-07 -8.4523E-10  6.3851E-14 -3.9532E-15
      23  1.2053E-06 -5.1887E-11  5.1517E-06 -5.1891E-11
      24  6.8827E-07  7.4146E-10  1.9561E-05 -3.9532E-15
      25  1.8602E-10 -3.4152E-15  8.8294E-10 -5.9295E-15
      26  1.8840E-10 -6.3850E-14  1.7282E-09 -3.9532E-15
      27  2.7507E-10 -1.2429E-13  9.8658E-10 -9.8821E-15
      28  6.1592E-07 -7.9334E-10  4.4158E-10  5.9898E-14
      29  1.1691E-06 -1.2109E-06  2.9303E-10  5.1516E-06
      30  1.6895E-03 -2.4210E-06  2.4206E-06  1.9561E-05
      31  3.0798E-07 -9.4189E-10  4.4151E-10  4.4150E-10
      32  9.6481E-07 -8.3818E-10  8.3818E-10  8.1223E-10
      33  1.4770E-06 -7.3446E-10  1.2113E-06  3.8961E-10
      34  1.4563E-10  1.9723E-15  4.4143E-10  5.9898E-14
      35  1.4425E-10 -5.9290E-15  1.3833E-09  2.9679E-14
      36  1.5390E-10 -1.3830E-14  2.1178E-09  5.9898E-14
      37  1.9153E-10 -2.0755E-10  6.3845E-14  8.8295E-10
      38  1.4493E-07 -6.3851E-14  1.0386E-10  1.4687E-09
      39  2.8058E-10  2.0742E-10 -2.0736E-10  2.4227E-06
      40  1.4701E-10 -1.0376E-10  6.3850E-14  4.4143E-10
      41  7.2503E-08 -1.0377E-10  1.0381E-10  1.2796E-09
      42  1.4488E-07 -1.0379E-10  6.3851E-14  1.9102E-09
      43  1.0248E-10 -6.3852E-14  6.3856E-14  6.1879E-14
      44  1.4701E-10 -6.3850E-14  1.0376E-10 -3.9452E-15
      45  1.9153E-10 -6.3849E-14  2.0748E-10 -5.3964E-14

*TEMPERATURE_PART       npart=         1
    part temperature
       1  6.7766E-04

 WARNING: Surfaces with temperature boundary conditions are not included
          in the heat transfer data below. Therefore, an overall energy
          balance may not sum to 0.

 The PART is the frame of reference for boundary condition segment
 set heat transfer data. Positive heat flow is into the part and negative
 heat flow is out of the part.

 energy == energy over this time step of length dt=  1.000000E-02

*ENERGY_BOUNDARY         nfbc=         0     ncbc=         0     nrbc=         0
   bc type   seg set   [energy/time]        [energy]       T_average
                         -----------     -----------
          energy sum      0.0000E+00      0.0000E+00


*ENERGY_PART            npart=         1
    part #  Qgen_chg[energy]  IE_chg[energy]
         1      0.0000E+00     -4.7876E-20
               -----------     -----------
                0.0000E+00     -4.7876E-20

 number of solution iterations  =    1

 QA temperature norm, Tmin, Tmax=   2.826215E-02   9.145203E-11   2.728129E-02


 **********************************************************************

     time =  1.1000E-01     time step =  1.0000E-02     thermal step no.=    11

     minimum temperature =   1.3971E-10   at node        7
     maximum temperature =   2.7277E-02   at node       21

*TEMPERATURE_NODE     numnode=        45   thkshl=         0
  node   temperature      x-flux      y-flux      z-flux

       1  2.7574E-10 -5.2165E-15  9.7526E-14 -1.0790E-09
       2  2.7937E-10 -9.7534E-14  1.0273E-13 -2.0485E-09
       3  4.1177E-10 -1.8985E-13  2.9259E-13 -1.0788E-09
       4  2.0773E-10 -8.0842E-18  9.7534E-14 -5.3943E-10
       5  2.0773E-10 -1.7250E-19  5.1375E-14 -1.5636E-09
       6  2.0773E-10  7.7392E-18  9.7534E-14 -2.5880E-09
       7  1.3971E-10 -9.7534E-14  9.7543E-14 -1.0056E-13
       8  2.0772E-10 -9.7534E-14  1.6889E-17 -6.0546E-15
       9  2.7574E-10 -9.7534E-14 -9.7525E-14  8.8469E-14
      10  7.5270E-07 -9.6950E-10  5.3964E-10 -1.0357E-13
      11  1.4288E-06 -3.0191E-15  4.8495E-10 -5.1510E-06
      12  7.5270E-07  9.6949E-10 -1.5089E-09 -1.9558E-05
      13  3.7638E-07 -1.0242E-09  5.3953E-10 -5.3954E-10
      14  1.0906E-06 -1.0243E-09  1.0243E-09 -1.0560E-09
      15  1.8049E-06 -1.0244E-09  5.3953E-10 -6.0294E-10
      16  2.0983E-10 -3.0268E-15  5.3943E-10 -1.0357E-13
      17  2.1194E-10 -3.0189E-15  1.5636E-09 -5.7414E-14
      18  2.1404E-10 -3.0110E-15  2.5880E-09 -1.0357E-13
      19  4.2019E-10 -1.0302E-05 -1.0788E-09 -1.5096E-14
      20  7.1841E-03 -1.9558E-05  1.0300E-05 -6.0389E-15
      21  2.7277E-02 -2.8813E-05  3.9114E-05 -1.2107E-06
      22  7.5270E-07 -1.0329E-09  9.7535E-14 -6.0389E-15
      23  1.4730E-06 -6.3408E-11  5.1510E-06 -6.3414E-11
      24  8.4113E-07  9.0608E-10  1.9558E-05 -6.0389E-15
      25  2.8416E-10 -5.2172E-15  1.0790E-09 -9.0578E-15
      26  2.8780E-10 -9.7534E-14  2.1119E-09 -6.0389E-15
      27  4.2019E-10 -1.8985E-13  1.2056E-09 -1.5096E-14
      28  7.5272E-07 -9.6948E-10  5.3965E-10  9.1496E-14
      29  1.4288E-06 -1.2107E-06  3.5813E-10  5.1508E-06
      30  1.6893E-03 -2.4205E-06  2.4199E-06  1.9558E-05
      31  3.7639E-07 -1.1510E-09  5.3954E-10  5.3952E-10
      32  1.1790E-06 -1.0243E-09  1.0243E-09  9.9258E-10
      33  1.8050E-06 -8.9756E-10  1.2113E-06  4.7612E-10
      34  2.2247E-10  3.0110E-15  5.3942E-10  9.1496E-14
      35  2.2037E-10 -9.0568E-15  1.6904E-09  4.5336E-14
      36  2.3510E-10 -2.1125E-14  2.5880E-09  9.1496E-14
      37  2.9258E-10 -2.5364E-10  9.7524E-14  1.0790E-09
      38  1.7717E-07 -9.7535E-14  1.2694E-10  1.7948E-09
      39  4.2861E-10  2.5344E-10 -2.5334E-10  2.4225E-06
      40  2.2457E-10 -1.2679E-10  9.7534E-14  5.3942E-10
      41  8.8643E-08 -1.2682E-10  1.2687E-10  1.5636E-09
      42  1.7709E-07 -1.2684E-10  9.7535E-14  2.3344E-09
      43  1.5655E-10 -9.7537E-14  9.7545E-14  9.4524E-14
      44  2.2457E-10 -9.7534E-14  1.2679E-10 -6.0232E-15
      45  2.9258E-10 -9.7532E-14  2.5353E-10 -8.2431E-14

*TEMPERATURE_PART       npart=         1
    part temperature
       1  6.7766E-04

 WARNING: Surfaces with temperature boundary conditions are not included
          in the heat transfer data below. Therefore, an overall energy
          balance may not sum to 0.

 The PART is the frame of reference for boundary condition segment
 set heat transfer data. Positive heat flow is into the part and negative
 heat flow is out of the part.

 energy == energy over this time step of length dt=  1.000000E-02

*ENERGY_BOUNDARY         nfbc=         0     ncbc=         0     nrbc=         0
   bc type   seg set   [energy/time]        [energy]       T_average
                         -----------     -----------
          energy sum      0.0000E+00      0.0000E+00


*ENERGY_PART            npart=         1
    part #  Qgen_chg[energy]  IE_chg[energy]
         1      0.0000E+00      4.6563E-21
               -----------     -----------
                0.0000E+00      4.6563E-21

 number of solution iterations  =    1

 QA temperature norm, Tmin, Tmax=   2.825786E-02   1.397052E-10   2.727713E-02


 **********************************************************************

     time =  1.3000E-01     time step =  1.0000E-02     thermal step no.=    13

     minimum temperature =   1.9811E-10   at node        7
     maximum temperature =   2.7273E-02   at node       21

*TEMPERATURE_NODE     numnode=        45   thkshl=         0
  node   temperature      x-flux      y-flux      z-flux

       1  3.9100E-10 -7.3969E-15  1.3829E-13 -1.2749E-09
       2  3.9615E-10 -1.3830E-13  1.4567E-13 -2.4205E-09
       3  5.8388E-10 -2.6920E-13  4.1489E-13 -1.2747E-09
       4  2.9456E-10 -1.4010E-17  1.3830E-13 -6.3739E-10
       5  2.9457E-10 -2.9895E-19  7.2849E-14 -1.8476E-09
       6  2.9456E-10  1.3413E-17  1.3830E-13 -3.0581E-09
       7  1.9811E-10 -1.3830E-13  1.3832E-13 -1.4260E-13
       8  2.9455E-10 -1.3830E-13  2.9270E-17 -8.5904E-15
       9  3.9100E-10 -1.3830E-13 -1.3828E-13  1.2544E-13
      10  8.8947E-07 -1.1456E-09  6.3768E-10 -1.4686E-13
      11  1.6883E-06 -4.2809E-15  5.7308E-10 -5.1502E-06
      12  8.8947E-07  1.1456E-09 -1.7830E-09 -1.9555E-05
      13  4.4478E-07 -1.2102E-09  6.3753E-10 -6.3754E-10
      14  1.2887E-06 -1.2103E-09  1.2103E-09 -1.2478E-09
      15  2.1328E-06 -1.2105E-09  6.3753E-10 -7.1246E-10
      16  2.9755E-10 -4.2944E-15  6.3739E-10 -1.4686E-13
      17  3.0054E-10 -4.2807E-15  1.8476E-09 -8.1412E-14
      18  3.0352E-10 -4.2670E-15  3.0580E-09 -1.4686E-13
      19  5.9583E-10 -1.0300E-05 -1.2746E-09 -2.1405E-14
      20  7.1830E-03 -1.9555E-05  1.0298E-05 -8.5633E-15
      21  2.7273E-02 -2.8809E-05  3.9108E-05 -1.2105E-06
      22  8.8947E-07 -1.2205E-09  1.3830E-13 -8.5633E-15
      23  1.7406E-06 -7.4925E-11  5.1502E-06 -7.4934E-11
      24  9.9397E-07  1.0707E-09  1.9555E-05 -8.5633E-15
      25  4.0294E-10 -7.3981E-15  1.2749E-09 -1.2844E-14
      26  4.0810E-10 -1.3830E-13  2.4954E-09 -8.5633E-15
      27  5.9583E-10 -2.6920E-13  1.4245E-09 -2.1405E-14
      28  8.8950E-07 -1.1456E-09  6.3770E-10  1.2974E-13
      29  1.6884E-06 -1.2105E-06  4.2323E-10  5.1501E-06
      30  1.6892E-03 -2.4199E-06  2.4193E-06  1.9555E-05
      31  4.4479E-07 -1.3600E-09  6.3754E-10  6.3752E-10
      32  1.3932E-06 -1.2103E-09  1.2103E-09  1.1729E-09
      33  2.1328E-06 -1.0606E-09  1.2112E-06  5.6260E-10
      34  3.1546E-10  4.2670E-15  6.3738E-10  1.2974E-13
      35  3.1249E-10 -1.2842E-14  1.9974E-09  6.4285E-14
      36  3.3337E-10 -2.9951E-14  3.0580E-09  1.2974E-13
      37  4.1488E-10 -2.9971E-10  1.3828E-13  1.2749E-09
      38  2.0942E-07 -1.3830E-13  1.5003E-10  2.1208E-09
      39  6.0777E-10  2.9943E-10 -2.9929E-10  2.4223E-06
      40  3.1845E-10 -1.4982E-10  1.3830E-13  6.3738E-10
      41  1.0479E-07 -1.4985E-10  1.4992E-10  1.8476E-09
      42  2.0931E-07 -1.4988E-10  1.3830E-13  2.7583E-09
      43  2.2199E-10 -1.3830E-13  1.3832E-13  1.3404E-13
      44  3.1844E-10 -1.3830E-13  1.4982E-10 -8.5361E-15
      45  4.1488E-10 -1.3830E-13  2.9956E-10 -1.1688E-13

*TEMPERATURE_PART       npart=         1
    part temperature
       1  6.7766E-04

 WARNING: Surfaces with temperature boundary conditions are not included
          in the heat transfer data below. Therefore, an overall energy
          balance may not sum to 0.

 The PART is the frame of reference for boundary condition segment
 set heat transfer data. Positive heat flow is into the part and negative
 heat flow is out of the part.

 energy == energy over this time step of length dt=  1.000000E-02

*ENERGY_BOUNDARY         nfbc=         0     ncbc=         0     nrbc=         0
   bc type   seg set   [energy/time]        [energy]       T_average
                         -----------     -----------
          energy sum      0.0000E+00      0.0000E+00


*ENERGY_PART            npart=         1
    part #  Qgen_chg[energy]  IE_chg[energy]
         1      0.0000E+00      2.3488E-19
               -----------     -----------
                0.0000E+00      2.3488E-19

 number of solution iterations  =    1

 QA temperature norm, Tmin, Tmax=   2.825357E-02   1.981086E-10   2.727298E-02


 **********************************************************************

     time =  1.5000E-01     time step =  1.0000E-02     thermal step no.=    15

     minimum temperature =   2.6666E-10   at node        7
     maximum temperature =   2.7269E-02   at node       21

*TEMPERATURE_NODE     numnode=        45   thkshl=         0
  node   temperature      x-flux      y-flux      z-flux

       1  5.2628E-10 -9.9560E-15  1.8612E-13 -1.4708E-09
       2  5.3322E-10 -1.8615E-13  1.9605E-13 -2.7925E-09
       3  7.8589E-10 -3.6233E-13  5.5841E-13 -1.4705E-09
       4  3.9648E-10 -2.2286E-17  1.8615E-13 -7.3531E-10
       5  3.9650E-10 -4.7552E-19  9.8051E-14 -2.1315E-09
       6  3.9649E-10  2.1335E-17  1.8615E-13 -3.5280E-09
       7  2.6666E-10 -1.8615E-13  1.8617E-13 -1.9193E-13
       8  3.9647E-10 -1.8615E-13  4.6558E-17 -1.1569E-14
       9  5.2628E-10 -1.8615E-13 -1.8612E-13  1.6884E-13
      10  1.0262E-06 -1.3216E-09  7.3570E-10 -1.9767E-13
      11  1.9479E-06 -5.7619E-15  6.6120E-10 -5.1494E-06
      12  1.0262E-06  1.3216E-09 -2.0569E-09 -1.9552E-05
      13  5.1317E-07 -1.3961E-09  7.3550E-10 -7.3551E-10
      14  1.4868E-06 -1.3963E-09  1.3963E-09 -1.4395E-09
      15  2.4606E-06 -1.3965E-09  7.3550E-10 -8.2195E-10
      16  4.0050E-10 -5.7835E-15  7.3531E-10 -1.9767E-13
      17  4.0454E-10 -5.7616E-15  2.1314E-09 -1.0958E-13
      18  4.0854E-10 -5.7398E-15  3.5279E-09 -1.9767E-13
      19  8.0197E-10 -1.0299E-05 -1.4704E-09 -2.8811E-14
      20  7.1819E-03 -1.9552E-05  1.0296E-05 -1.1526E-14
      21  2.7269E-02 -2.8805E-05  3.9102E-05 -1.2103E-06
      22  1.0262E-06 -1.4081E-09  1.8615E-13 -1.1526E-14
      23  2.0081E-06 -8.6439E-11  5.1494E-06 -8.6451E-11
      24  1.1468E-06  1.2352E-09  1.9552E-05 -1.1526E-14
      25  5.4235E-10 -9.9579E-15  1.4708E-09 -1.7288E-14
      26  5.4929E-10 -1.8615E-13  2.8789E-09 -1.1526E-14
      27  8.0197E-10 -3.6233E-13  1.6433E-09 -2.8811E-14
      28  1.0262E-06 -1.3216E-09  7.3574E-10  1.7462E-13
      29  1.9479E-06 -1.2103E-06  4.8832E-10  5.1493E-06
      30  1.6891E-03 -2.4194E-06  2.4186E-06  1.9552E-05
      31  5.1318E-07 -1.5690E-09  7.3552E-10  7.3549E-10
      32  1.6073E-06 -1.3963E-09  1.3963E-09  1.3531E-09
      33  2.4606E-06 -1.2236E-09  1.2111E-06  6.4905E-10
      34  4.2461E-10  5.7398E-15  7.3530E-10  1.7462E-13
      35  4.2061E-10 -1.7285E-14  2.3043E-09  8.6524E-14
      36  4.4872E-10 -4.0310E-14  3.5279E-09  1.7462E-13
      37  5.5842E-10 -3.4577E-10  1.8612E-13  1.4708E-09
      38  2.4168E-07 -1.8615E-13  1.7312E-10  2.4467E-09
      39  8.1804E-10  3.4539E-10 -3.4520E-10  2.4222E-06
      40  4.2864E-10 -1.7283E-10  1.8615E-13  7.3529E-10
      41  1.2095E-07 -1.7288E-10  1.7298E-10  2.1315E-09
      42  2.4154E-07 -1.7292E-10  1.8615E-13  3.1822E-09
      43  2.9881E-10 -1.8615E-13  1.8618E-13  1.8041E-13
      44  4.2862E-10 -1.8615E-13  1.7283E-10 -1.1483E-14
      45  5.5842E-10 -1.8614E-13  3.4557E-10 -1.5731E-13

*TEMPERATURE_PART       npart=         1
    part temperature
       1  6.7766E-04

 WARNING: Surfaces with temperature boundary conditions are not included
          in the heat transfer data below. Therefore, an overall energy
          balance may not sum to 0.

 The PART is the frame of reference for boundary condition segment
 set heat transfer data. Positive heat flow is into the part and negative
 heat flow is out of the part.

 energy == energy over this time step of length dt=  1.000000E-02

*ENERGY_BOUNDARY         nfbc=         0     ncbc=         0     nrbc=         0
   bc type   seg set   [energy/time]        [energy]       T_average
                         -----------     -----------
          energy sum      0.0000E+00      0.0000E+00


*ENERGY_PART            npart=         1
    part #  Qgen_chg[energy]  IE_chg[energy]
         1      0.0000E+00     -6.2606E-22
               -----------     -----------
                0.0000E+00     -6.2606E-22

 number of solution iterations  =    1

 QA temperature norm, Tmin, Tmax=   2.824928E-02   2.666594E-10   2.726883E-02


 **********************************************************************

     time =  1.7000E-01     time step =  1.0000E-02     thermal step no.=    17

     minimum temperature =   3.4535E-10   at node        7
     maximum temperature =   2.7265E-02   at node       21

*TEMPERATURE_NODE     numnode=        45   thkshl=         0
  node   temperature      x-flux      y-flux      z-flux

       1  6.8157E-10 -1.2894E-14  2.4103E-13 -1.6667E-09
       2  6.9056E-10 -2.4107E-13  2.5389E-13 -3.1643E-09
       3  1.0178E-09 -4.6924E-13  7.2316E-13 -1.6662E-09
       4  5.1349E-10 -3.3301E-17  2.4107E-13 -8.3320E-10
       5  5.1351E-10 -7.1054E-19  1.2698E-13 -2.4152E-09
       6  5.1349E-10  3.1880E-17  2.4107E-13 -3.9977E-09
       7  3.4535E-10 -2.4107E-13  2.4110E-13 -2.4856E-13
       8  5.1346E-10 -2.4107E-13  6.9570E-17 -1.4992E-14
       9  6.8157E-10 -2.4107E-13 -2.4103E-13  2.1865E-13
      10  1.1629E-06 -1.4976E-09  8.3370E-10 -2.5599E-13
      11  2.2073E-06 -7.4618E-15  7.4930E-10 -5.1487E-06
      12  1.1629E-06  1.4976E-09 -2.3308E-09 -1.9549E-05
      13  5.8155E-07 -1.5820E-09  8.3345E-10 -8.3345E-10
      14  1.6848E-06 -1.5823E-09  1.5823E-09 -1.6312E-09
      15  2.7883E-06 -1.5825E-09  8.3345E-10 -9.3140E-10
      16  5.1869E-10 -7.4942E-15  8.3319E-10 -2.5599E-13
      17  5.2392E-10 -7.4616E-15  2.4152E-09 -1.4191E-13
      18  5.2910E-10 -7.4290E-15  3.9977E-09 -2.5599E-13
      19  1.0386E-09 -1.0297E-05 -1.6662E-09 -3.7312E-14
      20  7.1808E-03 -1.9549E-05  1.0294E-05 -1.4927E-14
      21  2.7265E-02 -2.8800E-05  3.9096E-05 -1.2102E-06
      22  1.1629E-06 -1.5956E-09  2.4107E-13 -1.4927E-14
      23  2.2756E-06 -9.7949E-11  5.1487E-06 -9.7964E-11
      24  1.2995E-06  1.3997E-09  1.9549E-05 -1.4927E-14
      25  7.0239E-10 -1.2896E-14  1.6666E-09 -2.2389E-14
      26  7.1138E-10 -2.4107E-13  3.2622E-09 -1.4927E-14
      27  1.0386E-09 -4.6924E-13  1.8621E-09 -3.7312E-14
      28  1.1630E-06 -1.4976E-09  8.3374E-10  2.2614E-13
      29  2.2073E-06 -1.2102E-06  5.5340E-10  5.1485E-06
      30  1.6890E-03 -2.4188E-06  2.4180E-06  1.9549E-05
      31  5.8157E-07 -1.7779E-09  8.3346E-10  8.3342E-10
      32  1.8214E-06 -1.5823E-09  1.5823E-09  1.5333E-09
      33  2.7883E-06 -1.3866E-09  1.2110E-06  7.3547E-10
      34  5.4992E-10  7.4290E-15  8.3318E-10  2.2614E-13
      35  5.4474E-10 -2.2385E-14  2.6111E-09  1.1205E-13
      36  5.8114E-10 -5.2198E-14  3.9976E-09  2.2614E-13
      37  7.2320E-10 -3.9181E-10  2.4102E-13  1.6667E-09
      38  2.7395E-07 -2.4107E-13  1.9621E-10  2.7724E-09
      39  1.0594E-09  3.9133E-10 -3.9107E-10  2.4220E-06
      40  5.5513E-10 -1.9584E-10  2.4107E-13  8.3317E-10
      41  1.3712E-07 -1.9590E-10  1.9603E-10  2.4153E-09
      42  2.7377E-07 -1.9596E-10  2.4107E-13  3.6059E-09
      43  3.8699E-10 -2.4107E-13  2.4111E-13  2.3364E-13
      44  5.5510E-10 -2.4107E-13  1.9584E-10 -1.4863E-14
      45  7.2320E-10 -2.4106E-13  3.9156E-10 -2.0372E-13

*TEMPERATURE_PART       npart=         1
    part temperature
       1  6.7766E-04

 WARNING: Surfaces with temperature boundary conditions are not included
          in the heat transfer data below. Therefore, an overall energy
          balance may not sum to 0.

 The PART is the frame of reference for boundary condition segment
 set heat transfer data. Positive heat flow is into the part and negative
 heat flow is out of the part.

 energy == energy over this time step of length dt=  1.000000E-02

*ENERGY_BOUNDARY         nfbc=         0     ncbc=         0     nrbc=         0
   bc type   seg set   [energy/time]        [energy]       T_average
                         -----------     -----------
          energy sum      0.0000E+00      0.0000E+00


*ENERGY_PART            npart=         1
    part #  Qgen_chg[energy]  IE_chg[energy]
         1      0.0000E+00      1.0353E-19
               -----------     -----------
                0.0000E+00      1.0353E-19

 number of solution iterations  =    1

 QA temperature norm, Tmin, Tmax=   2.824499E-02   3.453548E-10   2.726467E-02


 **********************************************************************

     time =  1.8000E-01     time step =  1.0000E-02     thermal step no.=    18

     minimum temperature =   3.8851E-10   at node        7
     maximum temperature =   2.7263E-02   at node       21

*TEMPERATURE_NODE     numnode=        45   thkshl=         0
  node   temperature      x-flux      y-flux      z-flux

       1  7.6672E-10 -1.4504E-14  2.7114E-13 -1.7645E-09
       2  7.7683E-10 -2.7118E-13  2.8560E-13 -3.3501E-09
       3  1.1449E-09 -5.2785E-13  8.1349E-13 -1.7640E-09
       4  5.7764E-10 -3.9958E-17  2.7118E-13 -8.8213E-10
       5  5.7767E-10 -8.5258E-19  1.4284E-13 -2.5571E-09
       6  5.7764E-10  3.8253E-17  2.7118E-13 -4.2325E-09
       7  3.8851E-10 -2.7118E-13  2.7122E-13 -2.7962E-13
       8  5.7761E-10 -2.7118E-13  8.3477E-17 -1.6870E-14
       9  7.6672E-10 -2.7118E-13 -2.7113E-13  2.4595E-13
      10  1.2313E-06 -1.5856E-09  8.8269E-10 -2.8797E-13
      11  2.3370E-06 -8.3938E-15  7.9335E-10 -5.1483E-06
      12  1.2313E-06  1.5856E-09 -2.4677E-09 -1.9547E-05
      13  6.1573E-07 -1.6749E-09  8.8241E-10 -8.8241E-10
      14  1.7838E-06 -1.6752E-09  1.6752E-09 -1.7271E-09
      15  2.9521E-06 -1.6755E-09  8.8241E-10 -9.8612E-10
      16  5.8350E-10 -8.4327E-15  8.8212E-10 -2.8797E-13
      17  5.8938E-10 -8.3936E-15  2.5571E-09 -1.5963E-13
      18  5.9520E-10 -8.3545E-15  4.2325E-09 -2.8797E-13
      19  1.1683E-09 -1.0297E-05 -1.7640E-09 -4.1973E-14
      20  7.1803E-03 -1.9547E-05  1.0293E-05 -1.6792E-14
      21  2.7263E-02 -2.8798E-05  3.9093E-05 -1.2101E-06
      22  1.2313E-06 -1.6893E-09  2.7118E-13 -1.6792E-14
      23  2.4093E-06 -1.0370E-10  5.1483E-06 -1.0372E-10
      24  1.3759E-06  1.4819E-09  1.9547E-05 -1.6792E-14
      25  7.9014E-10 -1.4508E-14  1.7645E-09 -2.5186E-14
      26  8.0025E-10 -2.7118E-13  3.4538E-09 -1.6792E-14
      27  1.1683E-09 -5.2785E-13  1.9714E-09 -4.1973E-14
      28  1.2313E-06 -1.5856E-09  8.8274E-10  2.5439E-13
      29  2.3370E-06 -1.2101E-06  5.8594E-10  5.1481E-06
      30  1.6889E-03 -2.4186E-06  2.4177E-06  1.9547E-05
      31  6.1575E-07 -1.8824E-09  8.8242E-10  8.8238E-10
      32  1.9284E-06 -1.6752E-09  1.6752E-09  1.6234E-09
      33  2.9522E-06 -1.4681E-09  1.2110E-06  7.7868E-10
      34  6.1862E-10  8.3545E-15  8.8210E-10  2.5439E-13
      35  6.1280E-10 -2.5181E-14  2.7645E-09  1.2605E-13
      36  6.5374E-10 -5.8716E-14  4.2325E-09  2.5439E-13
      37  8.1355E-10 -4.1483E-10  2.7112E-13  1.7646E-09
      38  2.9009E-07 -2.7118E-13  2.0776E-10  2.9353E-09
      39  1.1918E-09  4.1428E-10 -4.1400E-10  2.4219E-06
      40  6.2448E-10 -2.0734E-10  2.7118E-13  8.8209E-10
      41  1.4521E-07 -2.0741E-10  2.0755E-10  2.5571E-09
      42  2.8989E-07 -2.0747E-10  2.7118E-13  3.8177E-09
      43  4.3534E-10 -2.7119E-13  2.7123E-13  2.6283E-13
      44  6.2445E-10 -2.7118E-13  2.0734E-10 -1.6715E-14
      45  8.1355E-10 -2.7117E-13  4.1454E-10 -2.2917E-13

*TEMPERATURE_PART       npart=         1
    part temperature
       1  6.7766E-04

 WARNING: Surfaces with temperature boundary conditions are not included
          in the heat transfer data below. Therefore, an overall energy
          balance may not sum to 0.

 The PART is the frame of reference for boundary condition segment
 set heat transfer data. Positive heat flow is into the part and negative
 heat flow is out of the part.

 energy == energy over this time step of length dt=  1.000000E-02

*ENERGY_BOUNDARY         nfbc=         0     ncbc=         0     nrbc=         0
   bc type   seg set   [energy/time]        [energy]       T_average
                         -----------     -----------
          energy sum      0.0000E+00      0.0000E+00


*ENERGY_PART            npart=         1
    part #  Qgen_chg[energy]  IE_chg[energy]
         1      0.0000E+00     -2.6840E-19
               -----------     -----------
                0.0000E+00     -2.6840E-19

 number of solution iterations  =    1

 QA temperature norm, Tmin, Tmax=   2.824284E-02   3.885058E-10   2.726259E-02


 **********************************************************************

     time =  2.0000E-01     time step =  1.0000E-02     thermal step no.=    20

     minimum temperature =   4.8241E-10   at node        7
     maximum temperature =   2.7258E-02   at node       21

*TEMPERATURE_NODE     numnode=        45   thkshl=         0
  node   temperature      x-flux      y-flux      z-flux

       1  9.5202E-10 -1.8009E-14  3.3665E-13 -1.9603E-09
       2  9.6458E-10 -3.3671E-13  3.5460E-13 -3.7218E-09
       3  1.4216E-09 -6.5540E-13  1.0101E-12 -1.9596E-09
       4  7.1726E-10 -5.5816E-17  3.3671E-13 -9.7996E-10
       5  7.1730E-10 -1.1909E-18  1.7736E-13 -2.8407E-09
       6  7.1726E-10  5.3434E-17  3.3671E-13 -4.7021E-09
       7  4.8241E-10 -3.3671E-13  3.3677E-13 -3.4719E-13
       8  7.1721E-10 -3.3671E-13  1.1660E-16 -2.0959E-14
       9  9.5202E-10 -3.3671E-13 -3.3664E-13  3.0538E-13
      10  1.3680E-06 -1.7615E-09  9.8066E-10 -3.5755E-13
      11  2.5963E-06 -1.0422E-14  8.8144E-10 -5.1475E-06
      12  1.3680E-06  1.7615E-09 -2.7414E-09 -1.9544E-05
      13  6.8409E-07 -1.8607E-09  9.8030E-10 -9.8031E-10
      14  1.9817E-06 -1.8611E-09  1.8611E-09 -1.9187E-09
      15  3.2797E-06 -1.8614E-09  9.8030E-10 -1.0955E-09
      16  7.2452E-10 -1.0476E-14  9.7995E-10 -3.5755E-13
      17  7.3183E-10 -1.0422E-14  2.8407E-09 -1.9821E-13
      18  7.3906E-10 -1.0367E-14  4.7020E-09 -3.5755E-13
      19  1.4507E-09 -1.0295E-05 -1.9596E-09 -5.2116E-14
      20  7.1792E-03 -1.9544E-05  1.0291E-05 -2.0851E-14
      21  2.7258E-02 -2.8794E-05  3.9086E-05 -1.2099E-06
      22  1.3680E-06 -1.8767E-09  3.3671E-13 -2.0851E-14
      23  2.6767E-06 -1.1521E-10  5.1475E-06 -1.1523E-10
      24  1.5286E-06  1.6463E-09  1.9544E-05 -2.0851E-14
      25  9.8109E-10 -1.8014E-14  1.9602E-09 -3.1273E-14
      26  9.9365E-10 -3.3671E-13  3.8369E-09 -2.0851E-14
      27  1.4507E-09 -6.5540E-13  2.1900E-09 -5.2116E-14
      28  1.3680E-06 -1.7615E-09  9.8072E-10  3.1586E-13
      29  2.5964E-06 -1.2099E-06  6.5102E-10  5.1473E-06
      30  1.6888E-03 -2.4180E-06  2.4170E-06  1.9544E-05
      31  6.8412E-07 -2.0912E-09  9.8032E-10  9.8027E-10
      32  2.1424E-06 -1.8611E-09  1.8611E-09  1.8034E-09
      33  3.2797E-06 -1.6310E-09  1.2109E-06  8.6506E-10
      34  7.6814E-10  1.0367E-14  9.7993E-10  3.1586E-13
      35  7.6091E-10 -3.1266E-14  3.0711E-09  1.5651E-13
      36  8.1175E-10 -7.2898E-14  4.7020E-09  3.1586E-13
      37  1.0102E-09 -4.6085E-10  3.3663E-13  1.9603E-09
      38  3.2238E-07 -3.3671E-13  2.3085E-10  3.2609E-09
      39  1.4798E-09  4.6018E-10 -4.5982E-10  2.4217E-06
      40  7.7542E-10 -2.3033E-10  3.3671E-13  9.7992E-10
      41  1.6140E-07 -2.3042E-10  2.3059E-10  2.8407E-09
      42  3.2214E-07 -2.3050E-10  3.3671E-13  4.2412E-09
      43  5.4056E-10 -3.3672E-13  3.3678E-13  3.2635E-13
      44  7.7538E-10 -3.3671E-13  2.3033E-10 -2.0743E-14
      45  1.0102E-09 -3.3669E-13  4.6050E-10 -2.8454E-13

*TEMPERATURE_PART       npart=         1
    part temperature
       1  6.7766E-04

 WARNING: Surfaces with temperature boundary conditions are not included
          in the heat transfer data below. Therefore, an overall energy
          balance may not sum to 0.

 The PART is the frame of reference for boundary condition segment
 set heat transfer data. Positive heat flow is into the part and negative
 heat flow is out of the part.

 energy == energy over this time step of length dt=  1.000000E-02

*ENERGY_BOUNDARY         nfbc=         0     ncbc=         0     nrbc=         0
   bc type   seg set   [energy/time]        [energy]       T_average
                         -----------     -----------
          energy sum      0.0000E+00      0.0000E+00


*ENERGY_PART            npart=         1
    part #  Qgen_chg[energy]  IE_chg[energy]
         1      0.0000E+00     -1.1049E-19
               -----------     -----------
                0.0000E+00     -1.1049E-19

 number of solution iterations  =    1

 QA temperature norm, Tmin, Tmax=   2.823855E-02   4.824126E-10   2.725844E-02


 **********************************************************************

     time =  2.2000E-01     time step =  1.0000E-02     thermal step no.=    22

     minimum temperature =   5.8646E-10   at node        7
     maximum temperature =   2.7254E-02   at node       21

*TEMPERATURE_NODE     numnode=        45   thkshl=         0
  node   temperature      x-flux      y-flux      z-flux

       1  1.1573E-09 -2.1893E-14  4.0922E-13 -2.1559E-09
       2  1.1726E-09 -4.0930E-13  4.3104E-13 -4.0933E-09
       3  1.7282E-09 -7.9671E-13  1.2278E-12 -2.1551E-09
       4  8.7194E-10 -7.5389E-17  4.0930E-13 -1.0778E-09
       5  8.7199E-10 -1.6085E-18  2.1560E-13 -3.1242E-09
       6  8.7194E-10  7.2172E-17  4.0930E-13 -5.1714E-09
       7  5.8646E-10 -4.0930E-13  4.0938E-13 -4.2205E-13
       8  8.7188E-10 -4.0930E-13  1.5749E-16 -2.5494E-14
       9  1.1573E-09 -4.0930E-13 -4.0922E-13  3.7121E-13
      10  1.5046E-06 -1.9374E-09  1.0786E-09 -4.3464E-13
      11  2.8556E-06 -1.2669E-14  9.6951E-10 -5.1467E-06
      12  1.5046E-06  1.9373E-09 -3.0151E-09 -1.9541E-05
      13  7.5244E-07 -2.0465E-09  1.0782E-09 -1.0782E-09
      14  2.1795E-06 -2.0468E-09  2.0468E-09 -2.1102E-09
      15  3.6072E-06 -2.0472E-09  1.0782E-09 -1.2049E-09
      16  8.8078E-10 -1.2743E-14  1.0777E-09 -4.3464E-13
      17  8.8966E-10 -1.2669E-14  3.1242E-09 -2.4094E-13
      18  8.9844E-10 -1.2595E-14  5.1714E-09 -4.3464E-13
      19  1.7635E-09 -1.0293E-05 -2.1551E-09 -6.3354E-14
      20  7.1781E-03 -1.9541E-05  1.0289E-05 -2.5347E-14
      21  2.7254E-02 -2.8789E-05  3.9080E-05 -1.2097E-06
      22  1.5046E-06 -2.0640E-09  4.0930E-13 -2.5347E-14
      23  2.9440E-06 -1.2671E-10  5.1467E-06 -1.2673E-10
      24  1.6813E-06  1.8106E-09  1.9541E-05 -2.5347E-14
      25  1.1927E-09 -2.1899E-14  2.1559E-09 -3.8016E-14
      26  1.2079E-09 -4.0930E-13  4.2199E-09 -2.5347E-14
      27  1.7635E-09 -7.9670E-13  2.4085E-09 -6.3354E-14
      28  1.5047E-06 -1.9373E-09  1.0787E-09  3.8396E-13
      29  2.8557E-06 -1.2097E-06  7.1609E-10  5.1465E-06
      30  1.6887E-03 -2.4175E-06  2.4164E-06  1.9541E-05
      31  7.5248E-07 -2.2999E-09  1.0782E-09  1.0781E-09
      32  2.3563E-06 -2.0468E-09  2.0468E-09  1.9835E-09
      33  3.6072E-06 -1.7938E-09  1.2108E-06  9.5142E-10
      34  9.3380E-10  1.2595E-14  1.0777E-09  3.8396E-13
      35  9.2501E-10 -3.8007E-14  3.3776E-09  1.9025E-13
      36  9.8680E-10 -8.8608E-14  5.1713E-09  3.8396E-13
      37  1.2280E-09 -5.0686E-10  4.0920E-13  2.1560E-09
      38  3.5469E-07 -4.0930E-13  2.5395E-10  3.5864E-09
      39  1.7989E-09  5.0604E-10 -5.0561E-10  2.4216E-06
      40  9.4264E-10 -2.5332E-10  4.0930E-13  1.0777E-09
      41  1.7759E-07 -2.5342E-10  2.5363E-10  3.1243E-09
      42  3.5439E-07 -2.5352E-10  4.0930E-13  4.6646E-09
      43  6.5715E-10 -4.0932E-13  4.0940E-13  3.9671E-13
      44  9.4259E-10 -4.0930E-13  2.5332E-10 -2.5201E-14
      45  1.2280E-09 -4.0928E-13  5.0643E-10 -3.4588E-13

*TEMPERATURE_PART       npart=         1
    part temperature
       1  6.7766E-04

 WARNING: Surfaces with temperature boundary conditions are not included
          in the heat transfer data below. Therefore, an overall energy
          balance may not sum to 0.

 The PART is the frame of reference for boundary condition segment
 set heat transfer data. Positive heat flow is into the part and negative
 heat flow is out of the part.

 energy == energy over this time step of length dt=  1.000000E-02

*ENERGY_BOUNDARY         nfbc=         0     ncbc=         0     nrbc=         0
   bc type   seg set   [energy/time]        [energy]       T_average
                         -----------     -----------
          energy sum      0.0000E+00      0.0000E+00


*ENERGY_PART            npart=         1
    part #  Qgen_chg[energy]  IE_chg[energy]
         1      0.0000E+00      1.6783E-20
               -----------     -----------
                0.0000E+00      1.6783E-20

 number of solution iterations  =    1

 QA temperature norm, Tmin, Tmax=   2.823426E-02   5.864567E-10   2.725429E-02


 **********************************************************************

     time =  2.4000E-01     time step =  1.0000E-02     thermal step no.=    24

     minimum temperature =   7.0064E-10   at node        7
     maximum temperature =   2.7250E-02   at node       21

*TEMPERATURE_NODE     numnode=        45   thkshl=         0
  node   temperature      x-flux      y-flux      z-flux

       1  1.3826E-09 -2.6154E-14  4.8885E-13 -2.3515E-09
       2  1.4008E-09 -4.8896E-13  5.1491E-13 -4.4647E-09
       3  2.0645E-09 -9.5177E-13  1.4668E-12 -2.3506E-09
       4  1.0417E-09 -9.9067E-17  4.8896E-13 -1.1755E-09
       5  1.0418E-09 -2.1137E-18  2.5756E-13 -3.4076E-09
       6  1.0417E-09  9.4839E-17  4.8896E-13 -5.6407E-09
       7  7.0064E-10 -4.8896E-13  4.8907E-13 -5.0420E-13
       8  1.0416E-09 -4.8896E-13  2.0696E-16 -3.0474E-14
       9  1.3826E-09 -4.8896E-13 -4.8885E-13  4.4345E-13
      10  1.6412E-06 -2.1132E-09  1.1765E-09 -5.1924E-13
      11  3.1148E-06 -1.5135E-14  1.0576E-09 -5.1460E-06
      12  1.6412E-06  2.1131E-09 -3.2886E-09 -1.9538E-05
      13  8.2078E-07 -2.2321E-09  1.1760E-09 -1.1760E-09
      14  2.3774E-06 -2.2326E-09  2.2326E-09 -2.3017E-09
      15  3.9346E-06 -2.2330E-09  1.1760E-09 -1.3142E-09
      16  1.0522E-09 -1.5231E-14  1.1755E-09 -5.1924E-13
      17  1.0629E-09 -1.5135E-14  3.4076E-09 -2.8784E-13
      18  1.0733E-09 -1.5038E-14  5.6406E-09 -5.1924E-13
      19  2.1068E-09 -1.0292E-05 -2.3505E-09 -7.5685E-14
      20  7.1771E-03 -1.9538E-05  1.0287E-05 -3.0282E-14
      21  2.7250E-02 -2.8785E-05  3.9074E-05 -1.2095E-06
      22  1.6412E-06 -2.2513E-09  4.8896E-13 -3.0282E-14
      23  3.2112E-06 -1.3821E-10  5.1460E-06 -1.3824E-10
      24  1.8340E-06  1.9749E-09  1.9538E-05 -3.0282E-14
      25  1.4248E-09 -2.6162E-14  2.3515E-09 -4.5416E-14
      26  1.4431E-09 -4.8896E-13  4.6028E-09 -3.0282E-14
      27  2.1068E-09 -9.5176E-13  2.6269E-09 -7.5685E-14
      28  1.6413E-06 -2.1131E-09  1.1766E-09  4.5869E-13
      29  3.1149E-06 -1.2095E-06  7.8116E-10  5.1457E-06
      30  1.6886E-03 -2.4169E-06  2.4157E-06  1.9538E-05
      31  8.2082E-07 -2.5085E-09  1.1760E-09  1.1760E-09
      32  2.5702E-06 -2.2326E-09  2.2326E-09  2.1635E-09
      33  3.9346E-06 -1.9566E-09  1.2107E-06  1.0378E-09
      34  1.1156E-09  1.5038E-14  1.1755E-09  4.5869E-13
      35  1.1051E-09 -4.5404E-14  3.6840E-09  2.2727E-13
      36  1.1789E-09 -1.0584E-13  5.6405E-09  4.5869E-13
      37  1.4670E-09 -5.5286E-10  4.8883E-13  2.3516E-09
      38  3.8700E-07 -4.8896E-13  2.7705E-10  3.9118E-09
      39  2.1490E-09  5.5188E-10 -5.5136E-10  2.4214E-06
      40  1.1262E-09 -2.7629E-10  4.8896E-13  1.1754E-09
      41  1.9380E-07 -2.7642E-10  2.7667E-10  3.4077E-09
      42  3.8664E-07 -2.7654E-10  4.8896E-13  5.0878E-09
      43  7.8509E-10 -4.8899E-13  4.8909E-13  4.7393E-13
      44  1.1261E-09 -4.8896E-13  2.7629E-10 -3.0090E-14
      45  1.4670E-09 -4.8894E-13  5.5234E-10 -4.1318E-13

*TEMPERATURE_PART       npart=         1
    part temperature
       1  6.7766E-04

 WARNING: Surfaces with temperature boundary conditions are not included
          in the heat transfer data below. Therefore, an overall energy
          balance may not sum to 0.

 The PART is the frame of reference for boundary condition segment
 set heat transfer data. Positive heat flow is into the part and negative
 heat flow is out of the part.

 energy == energy over this time step of length dt=  1.000000E-02

*ENERGY_BOUNDARY         nfbc=         0     ncbc=         0     nrbc=         0
   bc type   seg set   [energy/time]        [energy]       T_average
                         -----------     -----------
          energy sum      0.0000E+00      0.0000E+00


*ENERGY_PART            npart=         1
    part #  Qgen_chg[energy]  IE_chg[energy]
         1      0.0000E+00      2.5983E-19
               -----------     -----------
                0.0000E+00      2.5983E-19

 number of solution iterations  =    1

 QA temperature norm, Tmin, Tmax=   2.822998E-02   7.006352E-10   2.725014E-02


 **********************************************************************

     time =  2.6000E-01     time step =  1.0000E-02     thermal step no.=    26

     minimum temperature =   8.2495E-10   at node        7
     maximum temperature =   2.7246E-02   at node       21

*TEMPERATURE_NODE     numnode=        45   thkshl=         0
  node   temperature      x-flux      y-flux      z-flux

       1  1.6278E-09 -3.0793E-14  5.7554E-13 -2.5471E-09
       2  1.6493E-09 -5.7568E-13  6.0621E-13 -4.8360E-09
       3  2.4308E-09 -1.1206E-12  1.7269E-12 -2.5460E-09
       4  1.2265E-09 -1.2724E-16  5.7568E-13 -1.2732E-09
       5  1.2266E-09 -2.7148E-18  3.0324E-13 -3.6909E-09
       6  1.2265E-09  1.2181E-16  5.7568E-13 -6.1098E-09
       7  8.2495E-10 -5.7568E-13  5.7582E-13 -5.9364E-13
       8  1.2264E-09 -5.7568E-13  2.6581E-16 -3.5901E-14
       9  1.6278E-09 -5.7568E-13 -5.7554E-13  5.2209E-13
      10  1.7778E-06 -2.2889E-09  1.2744E-09 -6.1133E-13
      11  3.3740E-06 -1.7819E-14  1.1456E-09 -5.1452E-06
      12  1.7779E-06  2.2889E-09 -3.5621E-09 -1.9535E-05
      13  8.8911E-07 -2.4177E-09  1.2738E-09 -1.2738E-09
      14  2.5751E-06 -2.4183E-09  2.4183E-09 -2.4931E-09
      15  4.2619E-06 -2.4188E-09  1.2738E-09 -1.4235E-09
      16  1.2389E-09 -1.7943E-14  1.2732E-09 -6.1133E-13
      17  1.2514E-09 -1.7819E-14  3.6909E-09 -3.3889E-13
      18  1.2638E-09 -1.7694E-14  6.1097E-09 -6.1133E-13
      19  2.4805E-09 -1.0290E-05 -2.5459E-09 -8.9110E-14
      20  7.1760E-03 -1.9535E-05  1.0285E-05 -3.5654E-14
      21  2.7246E-02 -2.8780E-05  3.9068E-05 -1.2093E-06
      22  1.7778E-06 -2.4386E-09  5.7568E-13 -3.5654E-14
      23  3.4784E-06 -1.4970E-10  5.1452E-06 -1.4974E-10
      24  1.9866E-06  2.1392E-09  1.9535E-05 -3.5654E-14
      25  1.6776E-09 -3.0804E-14  2.5470E-09 -5.3472E-14
      26  1.6990E-09 -5.7568E-13  4.9856E-09 -3.5654E-14
      27  2.4805E-09 -1.1206E-12  2.8453E-09 -8.9110E-14
      28  1.7780E-06 -2.2888E-09  1.2745E-09  5.4004E-13
      29  3.3741E-06 -1.2093E-06  8.4622E-10  5.1449E-06
      30  1.6884E-03 -2.4164E-06  2.4151E-06  1.9535E-05
      31  8.8916E-07 -2.7171E-09  1.2739E-09  1.2738E-09
      32  2.7839E-06 -2.4183E-09  2.4183E-09  2.3434E-09
      33  4.2619E-06 -2.1194E-09  1.2106E-06  1.1241E-09
      34  1.3135E-09  1.7694E-14  1.2732E-09  5.4004E-13
      35  1.3012E-09 -5.3456E-14  3.9903E-09  2.6758E-13
      36  1.3881E-09 -1.2461E-13  6.1096E-09  5.4004E-13
      37  1.7273E-09 -5.9884E-10  5.7551E-13  2.5471E-09
      38  4.1933E-07 -5.7568E-13  3.0015E-10  4.2371E-09
      39  2.5302E-09  5.9769E-10 -5.9708E-10  2.4212E-06
      40  1.3259E-09 -2.9926E-10  5.7568E-13  1.2732E-09
      41  2.1002E-07 -2.9940E-10  2.9971E-10  3.6910E-09
      42  4.1891E-07 -2.9955E-10  5.7568E-13  5.5109E-09
      43  9.2438E-10 -5.7571E-13  5.7585E-13  5.5800E-13
      44  1.3258E-09 -5.7568E-13  2.9926E-10 -3.5407E-14
      45  1.7273E-09 -5.7565E-13  5.9823E-10 -4.8645E-13

*TEMPERATURE_PART       npart=         1
    part temperature
       1  6.7766E-04

 WARNING: Surfaces with temperature boundary conditions are not included
          in the heat transfer data below. Therefore, an overall energy
          balance may not sum to 0.

 The PART is the frame of reference for boundary condition segment
 set heat transfer data. Positive heat flow is into the part and negative
 heat flow is out of the part.

 energy == energy over this time step of length dt=  1.000000E-02

*ENERGY_BOUNDARY         nfbc=         0     ncbc=         0     nrbc=         0
   bc type   seg set   [energy/time]        [energy]       T_average
                         -----------     -----------
          energy sum      0.0000E+00      0.0000E+00


*ENERGY_PART            npart=         1
    part #  Qgen_chg[energy]  IE_chg[energy]
         1      0.0000E+00     -9.9710E-20
               -----------     -----------
                0.0000E+00     -9.9710E-20

 number of solution iterations  =    1

 QA temperature norm, Tmin, Tmax=   2.822569E-02   8.249454E-10   2.724599E-02


 **********************************************************************

     time =  2.8000E-01     time step =  1.0000E-02     thermal step no.=    28

     minimum temperature =   9.5938E-10   at node        7
     maximum temperature =   2.7242E-02   at node       21

*TEMPERATURE_NODE     numnode=        45   thkshl=         0
  node   temperature      x-flux      y-flux      z-flux

       1  1.8931E-09 -3.5809E-14  6.6929E-13 -2.7425E-09
       2  1.9181E-09 -6.6946E-13  7.0494E-13 -5.2071E-09
       3  2.8268E-09 -1.3031E-12  2.0082E-12 -2.7412E-09
       4  1.4264E-09 -1.6030E-16  6.6946E-13 -1.3709E-09
       5  1.4265E-09 -3.4202E-18  3.5263E-13 -3.9742E-09
       6  1.4264E-09  1.5346E-16  6.6946E-13 -6.5787E-09
       7  9.5938E-10 -6.6946E-13  6.6964E-13 -6.9036E-13
       8  1.4262E-09 -6.6946E-13  3.3486E-16 -4.1774E-14
       9  1.8931E-09 -6.6946E-13 -6.6928E-13  6.0712E-13
      10  1.9144E-06 -2.4646E-09  1.3723E-09 -7.1091E-13
      11  3.6331E-06 -2.0722E-14  1.2337E-09 -5.1444E-06
      12  1.9144E-06  2.4646E-09 -3.8354E-09 -1.9532E-05
      13  9.5743E-07 -2.6033E-09  1.3716E-09 -1.3716E-09
      14  2.7728E-06 -2.6039E-09  2.6039E-09 -2.6845E-09
      15  4.5891E-06 -2.6045E-09  1.3716E-09 -1.5328E-09
      16  1.4408E-09 -2.0878E-14  1.3709E-09 -7.1091E-13
      17  1.4554E-09 -2.0721E-14  3.9741E-09 -3.9409E-13
      18  1.4697E-09 -2.0565E-14  6.5786E-09 -7.1091E-13
      19  2.8846E-09 -1.0289E-05 -2.7411E-09 -1.0363E-13
      20  7.1749E-03 -1.9532E-05  1.0283E-05 -4.1463E-14
      21  2.7242E-02 -2.8776E-05  3.9062E-05 -1.2091E-06
      22  1.9144E-06 -2.6257E-09  6.6946E-13 -4.1463E-14
      23  3.7455E-06 -1.6119E-10  5.1444E-06 -1.6123E-10
      24  2.1392E-06  2.3034E-09  1.9532E-05 -4.1463E-14
      25  1.9509E-09 -3.5823E-14  2.7425E-09 -6.2185E-14
      26  1.9759E-09 -6.6946E-13  5.3682E-09 -4.1463E-14
      27  2.8846E-09 -1.3031E-12  3.0635E-09 -1.0363E-13
      28  1.9145E-06 -2.4645E-09  1.3724E-09  6.2801E-13
      29  3.6332E-06 -1.2091E-06  9.1127E-10  5.1441E-06
      30  1.6883E-03 -2.4158E-06  2.4145E-06  1.9532E-05
      31  9.5749E-07 -2.9256E-09  1.3716E-09  1.3715E-09
      32  2.9977E-06 -2.6039E-09  2.6039E-09  2.5233E-09
      33  4.5891E-06 -2.2821E-09  1.2105E-06  1.2103E-09
      34  1.5275E-09  2.0565E-14  1.3708E-09  6.2801E-13
      35  1.5132E-09 -6.2164E-14  4.2965E-09  3.1117E-13
      36  1.6142E-09 -1.4489E-13  6.5785E-09  6.2801E-13
      37  2.0087E-09 -6.4481E-10  6.6924E-13  2.7426E-09
      38  4.5167E-07 -6.6946E-13  3.2326E-10  4.5623E-09
      39  2.9424E-09  6.4347E-10 -6.4276E-10  2.4210E-06
      40  1.5420E-09 -3.2222E-10  6.6946E-13  1.3708E-09
      41  2.2624E-07 -3.2239E-10  3.2274E-10  3.9742E-09
      42  4.5117E-07 -3.2255E-10  6.6946E-13  5.9338E-09
      43  1.0750E-09 -6.6950E-13  6.6968E-13  6.4891E-13
      44  1.5419E-09 -6.6946E-13  3.2222E-10 -4.1152E-14
      45  2.0087E-09 -6.6942E-13  6.4410E-10 -5.6568E-13

*TEMPERATURE_PART       npart=         1
    part temperature
       1  6.7766E-04

 WARNING: Surfaces with temperature boundary conditions are not included
          in the heat transfer data below. Therefore, an overall energy
          balance may not sum to 0.

 The PART is the frame of reference for boundary condition segment
 set heat transfer data. Positive heat flow is into the part and negative
 heat flow is out of the part.

 energy == energy over this time step of length dt=  1.000000E-02

*ENERGY_BOUNDARY         nfbc=         0     ncbc=         0     nrbc=         0
   bc type   seg set   [energy/time]        [energy]       T_average
                         -----------     -----------
          energy sum      0.0000E+00      0.0000E+00


*ENERGY_PART            npart=         1
    part #  Qgen_chg[energy]  IE_chg[energy]
         1      0.0000E+00      9.8978E-21
               -----------     -----------
                0.0000E+00      9.8978E-21

 number of solution iterations  =    1

 QA temperature norm, Tmin, Tmax=   2.822140E-02   9.593843E-10   2.724184E-02


 **********************************************************************

     time =  3.0000E-01     time step =  1.0000E-02     thermal step no.=    30

     minimum temperature =   1.1039E-09   at node        7
     maximum temperature =   2.7238E-02   at node       21

*TEMPERATURE_NODE     numnode=        45   thkshl=         0
  node   temperature      x-flux      y-flux      z-flux

       1  2.1783E-09 -4.1204E-14  7.7008E-13 -2.9379E-09
       2  2.2070E-09 -7.7029E-13  8.1108E-13 -5.5781E-09
       3  3.2526E-09 -1.4994E-12  2.3107E-12 -2.9364E-09
       4  1.6413E-09 -1.9863E-16  7.7029E-13 -1.4686E-09
       5  1.6414E-09 -4.2380E-18  4.0575E-13 -4.2573E-09
       6  1.6413E-09  1.9015E-16  7.7029E-13 -7.0475E-09
       7  1.1039E-09 -7.7029E-13  7.7051E-13 -7.9435E-13
       8  1.6411E-09 -7.7029E-13  4.1494E-16 -4.8096E-14
       9  2.1783E-09 -7.7029E-13 -7.7007E-13  6.9855E-13
      10  2.0509E-06 -2.6403E-09  1.4702E-09 -8.1799E-13
      11  3.8921E-06 -2.3843E-14  1.3217E-09 -5.1436E-06
      12  2.0510E-06  2.6402E-09 -4.1087E-09 -1.9529E-05
      13  1.0257E-06 -2.7887E-09  1.4693E-09 -1.4694E-09
      14  2.9705E-06 -2.7895E-09  2.7895E-09 -2.8758E-09
      15  4.9162E-06 -2.7902E-09  1.4693E-09 -1.6420E-09
      16  1.6579E-09 -2.4037E-14  1.4685E-09 -8.1799E-13
      17  1.6747E-09 -2.3842E-14  4.2572E-09 -4.5345E-13
      18  1.6911E-09 -2.3648E-14  7.0474E-09 -8.1799E-13
      19  3.3191E-09 -1.0287E-05 -2.9363E-09 -1.1924E-13
      20  7.1738E-03 -1.9529E-05  1.0282E-05 -4.7710E-14
      21  2.7238E-02 -2.8772E-05  3.9056E-05 -1.2090E-06
      22  2.0510E-06 -2.8129E-09  7.7029E-13 -4.7710E-14
      23  4.0125E-06 -1.7268E-10  5.1436E-06 -1.7273E-10
      24  2.2918E-06  2.4675E-09  1.9529E-05 -4.7710E-14
      25  2.2448E-09 -4.1221E-14  2.9379E-09 -7.1553E-14
      26  2.2735E-09 -7.7029E-13  5.7507E-09 -4.7710E-14
      27  3.3191E-09 -1.4994E-12  3.2817E-09 -1.1924E-13
      28  2.0511E-06 -2.6401E-09  1.4703E-09  7.2260E-13
      29  3.8922E-06 -1.2090E-06  9.7632E-10  5.1433E-06
      30  1.6882E-03 -2.4153E-06  2.4138E-06  1.9529E-05
      31  1.0258E-06 -3.1341E-09  1.4694E-09  1.4693E-09
      32  3.2114E-06 -2.7895E-09  2.7895E-09  2.7031E-09
      33  4.9163E-06 -2.4448E-09  1.2104E-06  1.2966E-09
      34  1.7577E-09  2.3648E-14  1.4685E-09  7.2260E-13
      35  1.7412E-09 -7.1527E-14  4.6026E-09  3.5803E-13
      36  1.8574E-09 -1.6670E-13  7.0473E-09  7.2260E-13
      37  2.3113E-09 -6.9076E-10  7.7003E-13  2.9380E-09
      38  4.8402E-07 -7.7029E-13  3.4636E-10  4.8873E-09
      39  3.3857E-09  6.8922E-10 -6.8841E-10  2.4209E-06
      40  1.7743E-09 -3.4517E-10  7.7029E-13  1.4685E-09
      41  2.4248E-07 -3.4536E-10  3.4577E-10  4.2574E-09
      42  4.8345E-07 -3.4555E-10  7.7029E-13  6.3566E-09
      43  1.2370E-09 -7.7034E-13  7.7056E-13  7.4667E-13
      44  1.7742E-09 -7.7029E-13  3.4517E-10 -4.7325E-14
      45  2.3113E-09 -7.7024E-13  6.8995E-10 -6.5087E-13

*TEMPERATURE_PART       npart=         1
    part temperature
       1  6.7766E-04

 WARNING: Surfaces with temperature boundary conditions are not included
          in the heat transfer data below. Therefore, an overall energy
          balance may not sum to 0.

 The PART is the frame of reference for boundary condition segment
 set heat transfer data. Positive heat flow is into the part and negative
 heat flow is out of the part.

 energy == energy over this time step of length dt=  1.000000E-02

*ENERGY_BOUNDARY         nfbc=         0     ncbc=         0     nrbc=         0
   bc type   seg set   [energy/time]        [energy]       T_average
                         -----------     -----------
          energy sum      0.0000E+00      0.0000E+00


*ENERGY_PART            npart=         1
    part #  Qgen_chg[energy]  IE_chg[energy]
         1      0.0000E+00      4.7664E-20
               -----------     -----------
                0.0000E+00      4.7664E-20

 number of solution iterations  =    1

 QA temperature norm, Tmin, Tmax=   2.821712E-02   1.103949E-09   2.723769E-02


 **********************************************************************

     time =  3.2000E-01     time step =  1.0000E-02     thermal step no.=    32

     minimum temperature =   1.2586E-09   at node        7
     maximum temperature =   2.7234E-02   at node       21

*TEMPERATURE_NODE     numnode=        45   thkshl=         0
  node   temperature      x-flux      y-flux      z-flux

       1  2.4834E-09 -4.6975E-14  8.7791E-13 -3.1333E-09
       2  2.5162E-09 -8.7818E-13  9.2465E-13 -5.9491E-09
       3  3.7082E-09 -1.7094E-12  2.6343E-12 -3.1316E-09
       4  1.8712E-09 -2.4262E-16  8.7818E-13 -1.5662E-09
       5  1.8714E-09 -5.1767E-18  4.6258E-13 -4.5403E-09
       6  1.8712E-09  2.3227E-16  8.7818E-13 -7.5161E-09
       7  1.2586E-09 -8.7818E-13  8.7844E-13 -9.0562E-13
       8  1.8710E-09 -8.7818E-13  5.0683E-16 -5.4865E-14
       9  2.4834E-09 -8.7818E-13 -8.7790E-13  7.9637E-13
      10  2.1875E-06 -2.8158E-09  1.5680E-09 -9.3256E-13
      11  4.1511E-06 -2.7182E-14  1.4097E-09 -5.1429E-06
      12  2.1875E-06  2.8158E-09 -4.3819E-09 -1.9526E-05
      13  1.0940E-06 -2.9741E-09  1.5671E-09 -1.5671E-09
      14  3.1680E-06 -2.9750E-09  2.9750E-09 -3.0670E-09
      15  5.2432E-06 -2.9758E-09  1.5671E-09 -1.7513E-09
      16  1.8902E-09 -2.7419E-14  1.5661E-09 -9.3256E-13
      17  1.9093E-09 -2.7182E-14  4.5402E-09 -5.1697E-13
      18  1.9281E-09 -2.6944E-14  7.5160E-09 -9.3256E-13
      19  3.7841E-09 -1.0286E-05 -3.1314E-09 -1.3594E-13
      20  7.1728E-03 -1.9526E-05  1.0280E-05 -5.4394E-14
      21  2.7234E-02 -2.8767E-05  3.9049E-05 -1.2088E-06
      22  2.1875E-06 -2.9999E-09  8.7818E-13 -5.4394E-14
      23  4.2795E-06 -1.8416E-10  5.1429E-06 -1.8422E-10
      24  2.4443E-06  2.6316E-09  1.9526E-05 -5.4394E-14
      25  2.5593E-09 -4.6996E-14  3.1332E-09 -8.1576E-14
      26  2.5920E-09 -8.7818E-13  6.1331E-09 -5.4394E-14
      27  3.7841E-09 -1.7094E-12  3.4998E-09 -1.3594E-13
      28  2.1877E-06 -2.8157E-09  1.5681E-09  8.2380E-13
      29  4.1512E-06 -1.2088E-06  1.0414E-09  5.1425E-06
      30  1.6881E-03 -2.4147E-06  2.4132E-06  1.9526E-05
      31  1.0941E-06 -3.3425E-09  1.5671E-09  1.5670E-09
      32  3.4250E-06 -2.9750E-09  2.9750E-09  2.8829E-09
      33  5.2433E-06 -2.6075E-09  1.2103E-06  1.3828E-09
      34  2.0039E-09  2.6944E-14  1.5661E-09  8.2380E-13
      35  1.9852E-09 -8.1545E-14  4.9086E-09  4.0818E-13
      36  2.1177E-09 -1.9003E-13  7.5159E-09  8.2380E-13
      37  2.6351E-09 -7.3671E-10  8.7785E-13  3.1333E-09
      38  5.1638E-07 -8.7818E-13  3.6947E-10  5.2123E-09
      39  3.8599E-09  7.3495E-10 -7.3402E-10  2.4207E-06
      40  2.0229E-09 -3.6811E-10  8.7818E-13  1.5661E-09
      41  2.5873E-07 -3.6833E-10  3.6879E-10  4.5404E-09
      42  5.1573E-07 -3.6855E-10  8.7818E-13  6.7793E-09
      43  1.4103E-09 -8.7824E-13  8.7850E-13  8.5126E-13
      44  2.0228E-09 -8.7818E-13  3.6811E-10 -5.3924E-14
      45  2.6351E-09 -8.7812E-13  7.3578E-10 -7.4201E-13

*TEMPERATURE_PART       npart=         1
    part temperature
       1  6.7766E-04

 WARNING: Surfaces with temperature boundary conditions are not included
          in the heat transfer data below. Therefore, an overall energy
          balance may not sum to 0.

 The PART is the frame of reference for boundary condition segment
 set heat transfer data. Positive heat flow is into the part and negative
 heat flow is out of the part.

 energy == energy over this time step of length dt=  1.000000E-02

*ENERGY_BOUNDARY         nfbc=         0     ncbc=         0     nrbc=         0
   bc type   seg set   [energy/time]        [energy]       T_average
                         -----------     -----------
          energy sum      0.0000E+00      0.0000E+00


*ENERGY_PART            npart=         1
    part #  Qgen_chg[energy]  IE_chg[energy]
         1      0.0000E+00      1.0650E-19
               -----------     -----------
                0.0000E+00      1.0650E-19

 number of solution iterations  =    1

 QA temperature norm, Tmin, Tmax=   2.821283E-02   1.258637E-09   2.723354E-02


 **********************************************************************

     time =  3.4000E-01     time step =  1.0000E-02     thermal step no.=    34

     minimum temperature =   1.4234E-09   at node        7
     maximum temperature =   2.7229E-02   at node       21

*TEMPERATURE_NODE     numnode=        45   thkshl=         0
  node   temperature      x-flux      y-flux      z-flux

       1  2.8085E-09 -5.3124E-14  9.9279E-13 -3.3285E-09
       2  2.8456E-09 -9.9311E-13  1.0456E-12 -6.3199E-09
       3  4.1936E-09 -1.9331E-12  2.9790E-12 -3.3266E-09
       4  2.1162E-09 -2.9267E-16  9.9311E-13 -1.6637E-09
       5  2.1164E-09 -6.2444E-18  5.2312E-13 -4.8232E-09
       6  2.1162E-09  2.8018E-16  9.9311E-13 -7.9846E-09
       7  1.4234E-09 -9.9311E-13  9.9343E-13 -1.0242E-12
       8  2.1160E-09 -9.9311E-13  6.1137E-16 -6.2083E-14
       9  2.8085E-09 -9.9311E-13 -9.9278E-13  9.0057E-13
      10  2.3240E-06 -2.9914E-09  1.6658E-09 -1.0546E-12
      11  4.4100E-06 -3.0739E-14  1.4977E-09 -5.1421E-06
      12  2.3240E-06  2.9913E-09 -4.6550E-09 -1.9523E-05
      13  1.1623E-06 -3.1595E-09  1.6648E-09 -1.6648E-09
      14  3.3656E-06 -3.1604E-09  3.1604E-09 -3.2582E-09
      15  5.5702E-06 -3.1614E-09  1.6648E-09 -1.8604E-09
      16  2.1376E-09 -3.1026E-14  1.6637E-09 -1.0546E-12
      17  2.1593E-09 -3.0739E-14  4.8232E-09 -5.8463E-13
      18  2.1805E-09 -3.0453E-14  7.9845E-09 -1.0546E-12
      19  4.2794E-09 -1.0284E-05 -3.3265E-09 -1.5373E-13
      20  7.1717E-03 -1.9523E-05  1.0278E-05 -6.1516E-14
      21  2.7229E-02 -2.8763E-05  3.9043E-05 -1.2086E-06
      22  2.3240E-06 -3.1869E-09  9.9311E-13 -6.1516E-14
      23  4.5464E-06 -1.9565E-10  5.1421E-06 -1.9571E-10
      24  2.5969E-06  2.7956E-09  1.9523E-05 -6.1516E-14
      25  2.8943E-09 -5.3149E-14  3.3284E-09 -9.2255E-14
      26  2.9314E-09 -9.9311E-13  6.5153E-09 -6.1516E-14
      27  4.2794E-09 -1.9331E-12  3.7177E-09 -1.5373E-13
      28  2.3242E-06 -2.9912E-09  1.6660E-09  9.3161E-13
      29  4.4101E-06 -1.2086E-06  1.1064E-09  5.1417E-06
      30  1.6880E-03 -2.4142E-06  2.4125E-06  1.9523E-05
      31  1.1624E-06 -3.5508E-09  1.6648E-09  1.6647E-09
      32  3.6385E-06 -3.1604E-09  3.1604E-09  3.0626E-09
      33  5.5702E-06 -2.7701E-09  1.2103E-06  1.4690E-09
      34  2.2663E-09  3.0453E-14  1.6636E-09  9.3161E-13
      35  2.2451E-09 -9.2217E-14  5.2144E-09  4.6160E-13
      36  2.3949E-09 -2.1489E-13  7.9843E-09  9.3161E-13
      37  2.9801E-09 -7.8263E-10  9.9272E-13  3.3286E-09
      38  5.4875E-07 -9.9311E-13  3.9258E-10  5.5372E-09
      39  4.3652E-09  7.8065E-10 -7.7960E-10  2.4205E-06
      40  2.2878E-09 -3.9104E-10  9.9311E-13  1.6636E-09
      41  2.7498E-07 -3.9129E-10  3.9181E-10  4.8233E-09
      42  5.4802E-07 -3.9154E-10  9.9311E-13  7.2019E-09
      43  1.5950E-09 -9.9319E-13  9.9350E-13  9.6269E-13
      44  2.2876E-09 -9.9311E-13  3.9104E-10 -6.0948E-14
      45  2.9801E-09 -9.9304E-13  7.8159E-10 -8.3910E-13

*TEMPERATURE_PART       npart=         1
    part temperature
       1  6.7766E-04

 WARNING: Surfaces with temperature boundary conditions are not included
          in the heat transfer data below. Therefore, an overall energy
          balance may not sum to 0.

 The PART is the frame of reference for boundary condition segment
 set heat transfer data. Positive heat flow is into the part and negative
 heat flow is out of the part.

 energy == energy over this time step of length dt=  1.000000E-02

*ENERGY_BOUNDARY         nfbc=         0     ncbc=         0     nrbc=         0
   bc type   seg set   [energy/time]        [energy]       T_average
                         -----------     -----------
          energy sum      0.0000E+00      0.0000E+00


*ENERGY_PART            npart=         1
    part #  Qgen_chg[energy]  IE_chg[energy]
         1      0.0000E+00     -4.2557E-20
               -----------     -----------
                0.0000E+00     -4.2557E-20

 number of solution iterations  =    1

 QA temperature norm, Tmin, Tmax=   2.820855E-02   1.423444E-09   2.722939E-02


 **********************************************************************

     time =  3.6000E-01     time step =  1.0000E-02     thermal step no.=    36

     minimum temperature =   1.5984E-09   at node        7
     maximum temperature =   2.7225E-02   at node       21

*TEMPERATURE_NODE     numnode=        45   thkshl=         0
  node   temperature      x-flux      y-flux      z-flux

       1  3.1536E-09 -5.9650E-14  1.1147E-12 -3.5237E-09
       2  3.1952E-09 -1.1151E-12  1.1740E-12 -6.6905E-09
       3  4.7088E-09 -2.1705E-12  3.3449E-12 -3.5216E-09
       4  2.3762E-09 -3.4915E-16  1.1151E-12 -1.7613E-09
       5  2.3765E-09 -7.4496E-18  5.8737E-13 -5.1060E-09
       6  2.3763E-09  3.3425E-16  1.1151E-12 -8.4529E-09
       7  1.5984E-09 -1.1151E-12  1.1155E-12 -1.1500E-12
       8  2.3760E-09 -1.1151E-12  7.2936E-16 -6.9751E-14
       9  3.1536E-09 -1.1151E-12 -1.1147E-12  1.0112E-12
      10  2.4604E-06 -3.1668E-09  1.7636E-09 -1.1841E-12
      11  4.6688E-06 -3.4515E-14  1.5857E-09 -5.1413E-06
      12  2.4605E-06  3.1668E-09 -4.9280E-09 -1.9520E-05
      13  1.2306E-06 -3.3448E-09  1.7624E-09 -1.7624E-09
      14  3.5631E-06 -3.3458E-09  3.3458E-09 -3.4494E-09
      15  5.8970E-06 -3.3469E-09  1.7624E-09 -1.9696E-09
      16  2.4003E-09 -3.4856E-14  1.7612E-09 -1.1841E-12
      17  2.4246E-09 -3.4515E-14  5.1060E-09 -6.5644E-13
      18  2.4484E-09 -3.4173E-14  8.4528E-09 -1.1841E-12
      19  4.8051E-09 -1.0283E-05 -3.5214E-09 -1.7262E-13
      20  7.1706E-03 -1.9520E-05  1.0276E-05 -6.9074E-14
      21  2.7225E-02 -2.8758E-05  3.9037E-05 -1.2084E-06
      22  2.4605E-06 -3.3739E-09  1.1151E-12 -6.9074E-14
      23  4.8132E-06 -2.0712E-10  5.1413E-06 -2.0719E-10
      24  2.7493E-06  2.9596E-09  1.9520E-05 -6.9074E-14
      25  3.2499E-09 -5.9679E-14  3.5236E-09 -1.0359E-13
      26  3.2915E-09 -1.1151E-12  6.8974E-09 -6.9074E-14
      27  4.8051E-09 -2.1705E-12  3.9357E-09 -1.7262E-13
      28  2.4607E-06 -3.1666E-09  1.7638E-09  1.0460E-12
      29  4.6689E-06 -1.2084E-06  1.1714E-09  5.1409E-06
      30  1.6878E-03 -2.4137E-06  2.4119E-06  1.9520E-05
      31  1.2307E-06 -3.7590E-09  1.7625E-09  1.7623E-09
      32  3.8520E-06 -3.3458E-09  3.3458E-09  3.2423E-09
      33  5.8971E-06 -2.9326E-09  1.2102E-06  1.5552E-09
      34  2.5448E-09  3.4173E-14  1.7612E-09  1.0460E-12
      35  2.5210E-09 -1.0354E-13  5.5202E-09  5.1829E-13
      36  2.6892E-09 -2.4126E-13  8.4526E-09  1.0460E-12
      37  3.3462E-09 -8.2855E-10  1.1146E-12  3.5238E-09
      38  5.8113E-07 -1.1151E-12  4.1569E-10  5.8619E-09
      39  4.9014E-09  8.2632E-10 -8.2514E-10  2.4203E-06
      40  2.5689E-09 -4.1397E-10  1.1151E-12  1.7611E-09
      41  2.9125E-07 -4.1424E-10  4.1483E-10  5.1062E-09
      42  5.8032E-07 -4.1452E-10  1.1151E-12  7.6243E-09
      43  1.7910E-09 -1.1152E-12  1.1156E-12  1.0810E-12
      44  2.5687E-09 -1.1151E-12  4.1397E-10 -6.8397E-14
      45  3.3462E-09 -1.1150E-12  8.2737E-10 -9.4213E-13

*TEMPERATURE_PART       npart=         1
    part temperature
       1  6.7766E-04

 WARNING: Surfaces with temperature boundary conditions are not included
          in the heat transfer data below. Therefore, an overall energy
          balance may not sum to 0.

 The PART is the frame of reference for boundary condition segment
 set heat transfer data. Positive heat flow is into the part and negative
 heat flow is out of the part.

 energy == energy over this time step of length dt=  1.000000E-02

*ENERGY_BOUNDARY         nfbc=         0     ncbc=         0     nrbc=         0
   bc type   seg set   [energy/time]        [energy]       T_average
                         -----------     -----------
          energy sum      0.0000E+00      0.0000E+00


*ENERGY_PART            npart=         1
    part #  Qgen_chg[energy]  IE_chg[energy]
         1      0.0000E+00      1.2080E-20
               -----------     -----------
                0.0000E+00      1.2080E-20

 number of solution iterations  =    1

 QA temperature norm, Tmin, Tmax=   2.820426E-02   1.598369E-09   2.722524E-02


 **********************************************************************

     time =  3.8000E-01     time step =  1.0000E-02     thermal step no.=    38

     minimum temperature =   1.7834E-09   at node        7
     maximum temperature =   2.7221E-02   at node       21

*TEMPERATURE_NODE     numnode=        45   thkshl=         0
  node   temperature      x-flux      y-flux      z-flux

       1  3.5186E-09 -6.6552E-14  1.2437E-12 -3.7189E-09
       2  3.5650E-09 -1.2441E-12  1.3098E-12 -7.0611E-09
       3  5.2537E-09 -2.4217E-12  3.7319E-12 -3.7165E-09
       4  2.6513E-09 -4.1247E-16  1.2441E-12 -1.8588E-09
       5  2.6516E-09 -8.8005E-18  6.5533E-13 -5.3887E-09
       6  2.6513E-09  3.9487E-16  1.2441E-12 -8.9211E-09
       7  1.7834E-09 -1.2441E-12  1.2446E-12 -1.2831E-12
       8  2.6510E-09 -1.2441E-12  8.6161E-16 -7.7869E-14
       9  3.5186E-09 -1.2441E-12 -1.2436E-12  1.1281E-12
      10  2.5969E-06 -3.3423E-09  1.8614E-09 -1.3211E-12
      11  4.9276E-06 -3.8508E-14  1.6736E-09 -5.1405E-06
      12  2.5969E-06  3.3422E-09 -5.2009E-09 -1.9518E-05
      13  1.2989E-06 -3.5300E-09  1.8600E-09 -1.8601E-09
      14  3.7605E-06 -3.5312E-09  3.5312E-09 -3.6405E-09
      15  6.2238E-06 -3.5323E-09  1.8600E-09 -2.0787E-09
      16  2.6782E-09 -3.8912E-14  1.8587E-09 -1.3211E-12
      17  2.7053E-09 -3.8508E-14  5.3887E-09 -7.3239E-13
      18  2.7319E-09 -3.8104E-14  8.9210E-09 -1.3211E-12
      19  5.3612E-09 -1.0281E-05 -3.7163E-09 -1.9259E-13
      20  7.1695E-03 -1.9518E-05  1.0274E-05 -7.7069E-14
      21  2.7221E-02 -2.8754E-05  3.9031E-05 -1.2082E-06
      22  2.5969E-06 -3.5608E-09  1.2441E-12 -7.7069E-14
      23  5.0800E-06 -2.1860E-10  5.1405E-06 -2.1867E-10
      24  2.9018E-06  3.1236E-09  1.9518E-05 -7.7069E-14
      25  3.6260E-09 -6.6587E-14  3.7188E-09 -1.1558E-13
      26  3.6725E-09 -1.2441E-12  7.2794E-09 -7.7069E-14
      27  5.3612E-09 -2.4216E-12  4.1535E-09 -1.9259E-13
      28  2.5971E-06 -3.3420E-09  1.8616E-09  1.1671E-12
      29  4.9277E-06 -1.2082E-06  1.2365E-09  5.1401E-06
      30  1.6877E-03 -2.4131E-06  2.4113E-06  1.9518E-05
      31  1.2990E-06 -3.9672E-09  1.8601E-09  1.8599E-09
      32  4.0655E-06 -3.5312E-09  3.5312E-09  3.4219E-09
      33  6.2239E-06 -3.0951E-09  1.2101E-06  1.6413E-09
      34  2.8393E-09  3.8104E-14  1.8587E-09  1.1671E-12
      35  2.8128E-09 -1.1552E-13  5.8259E-09  5.7825E-13
      36  3.0005E-09 -2.6915E-13  8.9207E-09  1.1671E-12
      37  3.7335E-09 -8.7445E-10  1.2436E-12  3.7190E-09
      38  6.1353E-07 -1.2441E-12  4.3881E-10  6.1865E-09
      39  5.4686E-09  8.7196E-10 -8.7065E-10  2.4202E-06
      40  2.8663E-09 -4.3688E-10  1.2441E-12  1.8586E-09
      41  3.0753E-07 -4.3719E-10  4.3785E-10  5.3889E-09
[...]
  node   temperature      x-flux      y-flux      z-flux

       1  8.4912E-07 -1.5985E-11  2.9603E-10 -5.5381E-08
       2  8.6027E-07 -2.9778E-10  3.1040E-10 -1.0536E-07
       3  1.2644E-06 -5.7957E-10  8.9152E-10 -5.4804E-08
       4  6.4269E-07 -1.6204E-12  2.9778E-10 -2.7533E-08
       5  6.4382E-07 -3.4580E-14  1.5689E-10 -8.0074E-08
       6  6.4274E-07  1.5512E-12  2.9778E-10 -1.3318E-07
       7  4.3381E-07 -2.9777E-10  2.9952E-10 -3.0874E-10
       8  6.4146E-07 -2.9778E-10  3.3759E-12 -2.1777E-11
       9  8.4912E-07 -2.9779E-10 -2.9596E-10  2.6838E-10
      10  3.9469E-05 -4.9992E-08  2.8144E-08 -3.1632E-10
      11  7.4331E-05 -9.2170E-12  2.5594E-08 -4.9310E-06
      12  3.9482E-05  4.9974E-08 -7.7486E-08 -1.8710E-05
      13  1.9843E-05 -5.2543E-08  2.7834E-08 -2.7843E-08
      14  5.6484E-05 -5.2825E-08  5.2825E-08 -5.4460E-08
      15  9.3517E-05 -5.3106E-08  2.7834E-08 -3.1114E-08
      16  6.4912E-07 -1.0803E-11  2.7524E-08 -3.1632E-10
      17  6.5665E-07 -9.2170E-12  8.0056E-08 -1.7549E-10
      18  6.6197E-07 -7.6314E-12  1.3315E-07 -3.1632E-10
      19  1.2903E-06 -9.8614E-06 -5.4758E-08 -4.6295E-11
      20  6.8781E-03 -1.8710E-05  9.7534E-06 -1.8643E-11
      21  2.6096E-02 -2.7558E-05  3.7358E-05 -1.1583E-06
      22  3.9476E-05 -5.3234E-08  2.9778E-10 -1.8643E-11
      23  7.6599E-05 -3.2701E-09  4.9310E-06 -3.2888E-09
      24  4.4037E-05  4.6694E-08  1.8710E-05 -1.8643E-11
      25  8.7498E-07 -1.6124E-11  5.5354E-08 -2.7861E-11
      26  8.8623E-07 -2.9778E-10  1.0857E-07 -1.8643E-11
      27  1.2903E-06 -5.7943E-10  6.1299E-08 -4.6295E-11
      28  3.9534E-05 -4.9937E-08  2.8200E-08  2.7924E-10
      29  7.4357E-05 -1.1582E-06  1.9053E-08  4.9244E-06
      30  1.6549E-03 -2.2665E-06  2.2390E-06  1.8710E-05
      31  1.9869E-05 -5.9083E-08  2.7853E-08  2.7806E-08
      32  6.1071E-05 -5.2825E-08  5.2825E-08  5.1189E-08
      33  9.3543E-05 -4.6566E-08  1.1861E-06  2.4536E-08
      34  6.8797E-07  7.6325E-12  2.7505E-08  2.7924E-10
      35  6.8265E-07 -2.7651E-11  8.6596E-08  1.3821E-10
      36  7.2654E-07 -6.2934E-11  1.3310E-07  2.7924E-10
      37  9.0084E-07 -1.3097E-08  2.9562E-10  5.5400E-08
      38  1.0034E-05 -2.9778E-10  6.9243E-09  9.2240E-08
      39  1.3161E-06  1.2501E-08 -1.2189E-08  2.3713E-06
      40  6.9469E-07 -6.4680E-09  2.9778E-10  2.7496E-08
      41  5.2052E-06 -6.5402E-09  6.6970E-09  8.0111E-08
      42  9.8163E-06 -6.6123E-09  2.9778E-10  1.2006E-07
      43  4.8553E-07 -2.9818E-10  2.9994E-10  2.9031E-10
      44  6.9347E-07 -2.9778E-10  6.4698E-09 -1.5508E-11
      45  9.0084E-07 -2.9737E-10  1.2785E-08 -2.4995E-10

*TEMPERATURE_PART       npart=         1
    part temperature
       1  6.7766E-04

 WARNING: Surfaces with temperature boundary conditions are not included
          in the heat transfer data below. Therefore, an overall energy
          balance may not sum to 0.

 The PART is the frame of reference for boundary condition segment
 set heat transfer data. Positive heat flow is into the part and negative
 heat flow is out of the part.

 energy == energy over this time step of length dt=  1.000000E-02

*ENERGY_BOUNDARY         nfbc=         0     ncbc=         0     nrbc=         0
   bc type   seg set   [energy/time]        [energy]       T_average
                         -----------     -----------
          energy sum      0.0000E+00      0.0000E+00


*ENERGY_PART            npart=         1
    part #  Qgen_chg[energy]  IE_chg[energy]
         1      0.0000E+00     -1.7078E-19
               -----------     -----------
                0.0000E+00     -1.7078E-19

 number of solution iterations  =    1

 QA temperature norm, Tmin, Tmax=   2.703880E-02   4.338139E-07   2.609595E-02


 **********************************************************************

     time =  5.9500E+00     time step =  1.0000E-02     thermal step no.=   595

     minimum temperature =   4.3671E-07   at node        7
     maximum temperature =   2.6092E-02   at node       21

*TEMPERATURE_NODE     numnode=        45   thkshl=         0
  node   temperature      x-flux      y-flux      z-flux

       1  8.5476E-07 -1.6091E-11  2.9798E-10 -5.5559E-08
       2  8.6598E-07 -2.9975E-10  3.1244E-10 -1.0570E-07
       3  1.2728E-06 -5.8340E-10  8.9740E-10 -5.4978E-08
       4  6.4696E-07 -1.6366E-12  2.9975E-10 -2.7621E-08
       5  6.4811E-07 -3.4926E-14  1.5792E-10 -8.0330E-08
       6  6.4701E-07  1.5668E-12  2.9975E-10 -1.3361E-07
       7  4.3671E-07 -2.9974E-10  3.0151E-10 -3.1079E-10
       8  6.4573E-07 -2.9975E-10  3.4097E-12 -2.1932E-11
       9  8.5476E-07 -2.9976E-10 -2.9791E-10  2.7015E-10
      10  3.9599E-05 -5.0153E-08  2.8236E-08 -3.1841E-10
      11  7.4573E-05 -9.2779E-12  2.5678E-08 -4.9302E-06
      12  3.9612E-05  5.0134E-08 -7.7735E-08 -1.8707E-05
      13  1.9908E-05 -5.2711E-08  2.7924E-08 -2.7933E-08
      14  5.6666E-05 -5.2995E-08  5.2995E-08 -5.4635E-08
      15  9.3820E-05 -5.3278E-08  2.7924E-08 -3.1214E-08
      16  6.5344E-07 -1.0879E-11  2.7611E-08 -3.1841E-10
      17  6.6102E-07 -9.2779E-12  8.0312E-08 -1.7666E-10
      18  6.6638E-07 -7.6764E-12  1.3358E-07 -3.1841E-10
      19  1.2988E-06 -9.8599E-06 -5.4932E-08 -4.6601E-11
      20  6.8771E-03 -1.8707E-05  9.7515E-06 -1.8767E-11
      21  2.6092E-02 -2.7554E-05  3.7353E-05 -1.1581E-06
      22  3.9605E-05 -5.3406E-08  2.9975E-10 -1.8767E-11
      23  7.6848E-05 -3.2806E-09  4.9302E-06 -3.2995E-09
      24  4.4181E-05  4.6844E-08  1.8707E-05 -1.8767E-11
      25  8.8079E-07 -1.6231E-11  5.5531E-08 -2.8046E-11
      26  8.9211E-07 -2.9975E-10  1.0892E-07 -1.8767E-11
      27  1.2988E-06 -5.8326E-10  6.1493E-08 -4.6601E-11
      28  3.9664E-05 -5.0097E-08  2.8292E-08  2.8108E-10
      29  7.4599E-05 -1.1581E-06  1.9116E-08  4.9236E-06
      30  1.6548E-03 -2.2660E-06  2.2384E-06  1.8707E-05
      31  1.9934E-05 -5.9273E-08  2.7942E-08  2.7896E-08
      32  6.1268E-05 -5.2995E-08  5.2995E-08  5.1354E-08
      33  9.3846E-05 -4.6717E-08  1.1860E-06  2.4615E-08
      34  6.9255E-07  7.6776E-12  2.7593E-08  2.8108E-10
      35  6.8720E-07 -2.7834E-11  8.6873E-08  1.3912E-10
      36  7.3137E-07 -6.3345E-11  1.3353E-07  2.8108E-10
      37  9.0682E-07 -1.3139E-08  2.9756E-10  5.5577E-08
      38  1.0069E-05 -2.9975E-10  6.9478E-09  9.2536E-08
      39  1.3249E-06  1.2539E-08 -1.2225E-08  2.3711E-06
      40  6.9931E-07 -6.4886E-09  2.9975E-10  2.7583E-08
      41  5.2241E-06 -6.5612E-09  6.7191E-09  8.0367E-08
      42  9.8502E-06 -6.6338E-09  2.9975E-10  1.2045E-07
      43  4.8876E-07 -3.0016E-10  3.0193E-10  2.9223E-10
      44  6.9808E-07 -2.9975E-10  6.4904E-09 -1.5601E-11
      45  9.0682E-07 -2.9934E-10  1.2825E-08 -2.5159E-10

*TEMPERATURE_PART       npart=         1
    part temperature
       1  6.7766E-04

 WARNING: Surfaces with temperature boundary conditions are not included
          in the heat transfer data below. Therefore, an overall energy
          balance may not sum to 0.

 The PART is the frame of reference for boundary condition segment
 set heat transfer data. Positive heat flow is into the part and negative
 heat flow is out of the part.

 energy == energy over this time step of length dt=  1.000000E-02

*ENERGY_BOUNDARY         nfbc=         0     ncbc=         0     nrbc=         0
   bc type   seg set   [energy/time]        [energy]       T_average
                         -----------     -----------
          energy sum      0.0000E+00      0.0000E+00


*ENERGY_PART            npart=         1
    part #  Qgen_chg[energy]  IE_chg[energy]
         1      0.0000E+00      1.3616E-19
               -----------     -----------
                0.0000E+00      1.3616E-19

 number of solution iterations  =    1

 QA temperature norm, Tmin, Tmax=   2.703471E-02   4.367066E-07   2.609199E-02


 **********************************************************************

     time =  5.9700E+00     time step =  1.0000E-02     thermal step no.=   597

     minimum temperature =   4.3961E-07   at node        7
     maximum temperature =   2.6088E-02   at node       21

*TEMPERATURE_NODE     numnode=        45   thkshl=         0
  node   temperature      x-flux      y-flux      z-flux

       1  8.6042E-07 -1.6197E-11  2.9994E-10 -5.5736E-08
       2  8.7171E-07 -3.0172E-10  3.1448E-10 -1.0603E-07
       3  1.2812E-06 -5.8724E-10  9.0331E-10 -5.5151E-08
       4  6.5126E-07 -1.6530E-12  3.0172E-10 -2.7708E-08
       5  6.5241E-07 -3.5275E-14  1.5896E-10 -8.0586E-08
       6  6.5131E-07  1.5824E-12  3.0172E-10 -1.3404E-07
       7  4.3961E-07 -3.0171E-10  3.0350E-10 -3.1284E-10
       8  6.5001E-07 -3.0172E-10  3.4437E-12 -2.2088E-11
       9  8.6042E-07 -3.0173E-10 -2.9987E-10  2.7192E-10
      10  3.9728E-05 -5.0314E-08  2.8328E-08 -3.2051E-10
      11  7.4814E-05 -9.3390E-12  2.5762E-08 -4.9295E-06
      12  3.9741E-05  5.0295E-08 -7.7983E-08 -1.8704E-05
      13  1.9974E-05 -5.2879E-08  2.8013E-08 -2.8023E-08
      14  5.6849E-05 -5.3165E-08  5.3165E-08 -5.4811E-08
      15  9.4123E-05 -5.3450E-08  2.8013E-08 -3.1314E-08
      16  6.5777E-07 -1.0956E-11  2.7699E-08 -3.2051E-10
      17  6.6541E-07 -9.3390E-12  8.0567E-08 -1.7782E-10
      18  6.7079E-07 -7.7215E-12  1.3401E-07 -3.2051E-10
      19  1.3074E-06 -9.8584E-06 -5.5105E-08 -4.6909E-11
      20  6.8761E-03 -1.8704E-05  9.7497E-06 -1.8892E-11
      21  2.6088E-02 -2.7550E-05  3.7347E-05 -1.1579E-06
      22  3.9735E-05 -5.3577E-08  3.0172E-10 -1.8892E-11
      23  7.7097E-05 -3.2912E-09  4.9295E-06 -3.3102E-09
      24  4.4325E-05  4.6995E-08  1.8704E-05 -1.8892E-11
      25  8.8662E-07 -1.6338E-11  5.5708E-08 -2.8231E-11
      26  8.9801E-07 -3.0172E-10  1.0927E-07 -1.8892E-11
      27  1.3074E-06 -5.8710E-10  6.1687E-08 -4.6909E-11
      28  3.9793E-05 -5.0258E-08  2.8384E-08  2.8293E-10
      29  7.4841E-05 -1.1579E-06  1.9180E-08  4.9229E-06
      30  1.6547E-03 -2.2655E-06  2.2378E-06  1.8704E-05
      31  2.0000E-05 -5.9462E-08  2.8032E-08  2.7985E-08
      32  6.1466E-05 -5.3165E-08  5.3165E-08  5.1519E-08
      33  9.4149E-05 -4.6868E-08  1.1859E-06  2.4694E-08
      34  6.9714E-07  7.7227E-12  2.7680E-08  2.8293E-10
      35  6.9176E-07 -2.8017E-11  8.7150E-08  1.4004E-10
      36  7.3622E-07 -6.3756E-11  1.3395E-07  2.8293E-10
      37  9.1282E-07 -1.3181E-08  2.9952E-10  5.5755E-08
      38  1.0105E-05 -3.0172E-10  6.9714E-09  9.2831E-08
      39  1.3336E-06  1.2578E-08 -1.2262E-08  2.3709E-06
      40  7.0395E-07 -6.5092E-09  3.0172E-10  2.7670E-08
      41  5.2431E-06 -6.5823E-09  6.7412E-09  8.0623E-08
      42  9.8842E-06 -6.6554E-09  3.0172E-10  1.2084E-07
      43  4.9201E-07 -3.0213E-10  3.0393E-10  2.9416E-10
      44  7.0270E-07 -3.0172E-10  6.5110E-09 -1.5694E-11
      45  9.1282E-07 -3.0131E-10  1.2865E-08 -2.5324E-10

*TEMPERATURE_PART       npart=         1
    part temperature
       1  6.7766E-04

 WARNING: Surfaces with temperature boundary conditions are not included
          in the heat transfer data below. Therefore, an overall energy
          balance may not sum to 0.

 The PART is the frame of reference for boundary condition segment
 set heat transfer data. Positive heat flow is into the part and negative
 heat flow is out of the part.

 energy == energy over this time step of length dt=  1.000000E-02

*ENERGY_BOUNDARY         nfbc=         0     ncbc=         0     nrbc=         0
   bc type   seg set   [energy/time]        [energy]       T_average
                         -----------     -----------
          energy sum      0.0000E+00      0.0000E+00


*ENERGY_PART            npart=         1
    part #  Qgen_chg[energy]  IE_chg[energy]
         1      0.0000E+00     -3.4883E-20
               -----------     -----------
                0.0000E+00     -3.4883E-20

 number of solution iterations  =    1

 QA temperature norm, Tmin, Tmax=   2.703062E-02   4.396087E-07   2.608803E-02


 **********************************************************************

     time =  5.9900E+00     time step =  1.0000E-02     thermal step no.=   599

     minimum temperature =   4.4252E-07   at node        7
     maximum temperature =   2.6084E-02   at node       21

*TEMPERATURE_NODE     numnode=        45   thkshl=         0
  node   temperature      x-flux      y-flux      z-flux

       1  8.6609E-07 -1.6304E-11  3.0190E-10 -5.5913E-08
       2  8.7746E-07 -3.0370E-10  3.1654E-10 -1.0637E-07
       3  1.2897E-06 -5.9110E-10  9.0923E-10 -5.5325E-08
       4  6.5556E-07 -1.6694E-12  3.0370E-10 -2.7796E-08
       5  6.5672E-07 -3.5626E-14  1.6001E-10 -8.0842E-08
       6  6.5561E-07  1.5981E-12  3.0370E-10 -1.3447E-07
       7  4.4252E-07 -3.0369E-10  3.0550E-10 -3.1490E-10
       8  6.5430E-07 -3.0370E-10  3.4779E-12 -2.2244E-11
       9  8.6609E-07 -3.0371E-10 -3.0183E-10  2.7370E-10
      10  3.9857E-05 -5.0475E-08  2.8419E-08 -3.2261E-10
      11  7.5056E-05 -9.4003E-12  2.5847E-08 -4.9288E-06
      12  3.9870E-05  5.0456E-08 -7.8231E-08 -1.8701E-05
      13  2.0039E-05 -5.3047E-08  2.8103E-08 -2.8113E-08
      14  5.7032E-05 -5.3335E-08  5.3335E-08 -5.4986E-08
      15  9.4425E-05 -5.3622E-08  2.8103E-08 -3.1414E-08
      16  6.6212E-07 -1.1034E-11  2.7786E-08 -3.2261E-10
      17  6.6981E-07 -9.4003E-12  8.0823E-08 -1.7899E-10
      18  6.7523E-07 -7.7667E-12  1.3444E-07 -3.2261E-10
      19  1.3160E-06 -9.8569E-06 -5.5278E-08 -4.7218E-11
      20  6.8750E-03 -1.8701E-05  9.7479E-06 -1.9016E-11
      21  2.6084E-02 -2.7546E-05  3.7341E-05 -1.1577E-06
      22  3.9864E-05 -5.3748E-08  3.0370E-10 -1.9016E-11
      23  7.7345E-05 -3.3017E-09  4.9288E-06 -3.3208E-09
      24  4.4469E-05  4.7145E-08  1.8701E-05 -1.9016E-11
      25  8.9246E-07 -1.6446E-11  5.5885E-08 -2.8417E-11
      26  9.0393E-07 -3.0370E-10  1.0962E-07 -1.9016E-11
      27  1.3160E-06 -5.9096E-10  6.1881E-08 -4.7218E-11
      28  3.9923E-05 -5.0418E-08  2.8476E-08  2.8479E-10
      29  7.5082E-05 -1.1577E-06  1.9243E-08  4.9221E-06
      30  1.6546E-03 -2.2650E-06  2.2372E-06  1.8701E-05
      31  2.0066E-05 -5.9651E-08  2.8122E-08  2.8075E-08
      32  6.1663E-05 -5.3335E-08  5.3335E-08  5.1684E-08
      33  9.4452E-05 -4.7019E-08  1.1858E-06  2.4773E-08
      34  7.0175E-07  7.7680E-12  2.7768E-08  2.8479E-10
      35  6.9633E-07 -2.8201E-11  8.7426E-08  1.4096E-10
      36  7.4108E-07 -6.4169E-11  1.3438E-07  2.8479E-10
      37  9.1884E-07 -1.3223E-08  3.0147E-10  5.5932E-08
      38  1.0140E-05 -3.0370E-10  6.9950E-09  9.3127E-08
      39  1.3424E-06  1.2616E-08 -1.2298E-08  2.3707E-06
      40  7.0860E-07 -6.5297E-09  3.0370E-10  2.7758E-08
      41  5.2621E-06 -6.6033E-09  6.7633E-09  8.0879E-08
      42  9.9183E-06 -6.6769E-09  3.0370E-10  1.2122E-07
      43  4.9526E-07 -3.0412E-10  3.0593E-10  2.9610E-10
      44  7.0734E-07 -3.0370E-10  6.5316E-09 -1.5787E-11
      45  9.1884E-07 -3.0328E-10  1.2905E-08 -2.5490E-10

*TEMPERATURE_PART       npart=         1
    part temperature
       1  6.7766E-04

 WARNING: Surfaces with temperature boundary conditions are not included
          in the heat transfer data below. Therefore, an overall energy
          balance may not sum to 0.

 The PART is the frame of reference for boundary condition segment
 set heat transfer data. Positive heat flow is into the part and negative
 heat flow is out of the part.

 energy == energy over this time step of length dt=  1.000000E-02

*ENERGY_BOUNDARY         nfbc=         0     ncbc=         0     nrbc=         0
   bc type   seg set   [energy/time]        [energy]       T_average
                         -----------     -----------
          energy sum      0.0000E+00      0.0000E+00


*ENERGY_PART            npart=         1
    part #  Qgen_chg[energy]  IE_chg[energy]
         1      0.0000E+00     -1.2500E-19
               -----------     -----------
                0.0000E+00     -1.2500E-19

 number of solution iterations  =    1

 QA temperature norm, Tmin, Tmax=   2.702654E-02   4.425201E-07   2.608406E-02


 **********************************************************************

     time =  6.0000E+00     time step =  8.3489E-14     thermal step no.=   600

     minimum temperature =   4.4398E-07   at node        7
     maximum temperature =   2.6082E-02   at node       21

*TEMPERATURE_NODE     numnode=        45   thkshl=         0
  node   temperature      x-flux      y-flux      z-flux

       1  8.6894E-07 -1.6357E-11  3.0289E-10 -5.6002E-08
       2  8.8034E-07 -3.0469E-10  3.1756E-10 -1.0654E-07
       3  1.2939E-06 -5.9303E-10  9.1220E-10 -5.5412E-08
       4  6.5772E-07 -1.6777E-12  3.0469E-10 -2.7840E-08
       5  6.5889E-07 -3.5802E-14  1.6053E-10 -8.0969E-08
       6  6.5777E-07  1.6061E-12  3.0469E-10 -1.3468E-07
       7  4.4398E-07 -3.0468E-10  3.0650E-10 -3.1593E-10
       8  6.5645E-07 -3.0469E-10  3.4951E-12 -2.2323E-11
       9  8.6894E-07 -3.0470E-10 -3.0281E-10  2.7459E-10
      10  3.9922E-05 -5.0555E-08  2.8465E-08 -3.2366E-10
      11  7.5177E-05 -9.4310E-12  2.5889E-08 -4.9284E-06
      12  3.9935E-05  5.0536E-08 -7.8355E-08 -1.8700E-05
      13  2.0072E-05 -5.3131E-08  2.8148E-08 -2.8157E-08
      14  5.7123E-05 -5.3420E-08  5.3420E-08 -5.5073E-08
      15  9.4576E-05 -5.3708E-08  2.8148E-08 -3.1464E-08
      16  6.6430E-07 -1.1073E-11  2.7830E-08 -3.2366E-10
      17  6.7202E-07 -9.4310E-12  8.0951E-08 -1.7957E-10
      18  6.7745E-07 -7.7894E-12  1.3465E-07 -3.2366E-10
      19  1.3203E-06 -9.8562E-06 -5.5365E-08 -4.7372E-11
      20  6.8745E-03 -1.8700E-05  9.7470E-06 -1.9079E-11
      21  2.6082E-02 -2.7544E-05  3.7338E-05 -1.1577E-06
      22  3.9929E-05 -5.3834E-08  3.0469E-10 -1.9079E-11
      23  7.7470E-05 -3.3069E-09  4.9284E-06 -3.3261E-09
      24  4.4541E-05  4.7220E-08  1.8700E-05 -1.9079E-11
      25  8.9539E-07 -1.6500E-11  5.5974E-08 -2.8510E-11
      26  9.0690E-07 -3.0469E-10  1.0979E-07 -1.9079E-11
      27  1.3203E-06 -5.9289E-10  6.1978E-08 -4.7372E-11
      28  3.9988E-05 -5.0498E-08  2.8522E-08  2.8572E-10
      29  7.5203E-05 -1.1576E-06  1.9275E-08  4.9217E-06
      30  1.6545E-03 -2.2647E-06  2.2369E-06  1.8700E-05
      31  2.0098E-05 -5.9746E-08  2.8167E-08  2.8119E-08
      32  6.1762E-05 -5.3420E-08  5.3420E-08  5.1766E-08
      33  9.4603E-05 -4.7094E-08  1.1858E-06  2.4812E-08
      34  7.0406E-07  7.7906E-12  2.7811E-08  2.8572E-10
      35  6.9863E-07 -2.8293E-11  8.7565E-08  1.4142E-10
      36  7.4352E-07 -6.4376E-11  1.3459E-07  2.8572E-10
      37  9.2185E-07 -1.3244E-08  3.0246E-10  5.6021E-08
      38  1.0158E-05 -3.0469E-10  7.0068E-09  9.3275E-08
      39  1.3468E-06  1.2635E-08 -1.2316E-08  2.3707E-06
      40  7.1094E-07 -6.5400E-09  3.0469E-10  2.7801E-08
      41  5.2716E-06 -6.6138E-09  6.7743E-09  8.1007E-08
      42  9.9353E-06 -6.6876E-09  3.0469E-10  1.2141E-07
      43  4.9690E-07 -3.0511E-10  3.0693E-10  2.9707E-10
      44  7.0967E-07 -3.0469E-10  6.5418E-09 -1.5833E-11
      45  9.2185E-07 -3.0427E-10  1.2925E-08 -2.5573E-10

*TEMPERATURE_PART       npart=         1
    part temperature
       1  6.7766E-04

 WARNING: Surfaces with temperature boundary conditions are not included
          in the heat transfer data below. Therefore, an overall energy
          balance may not sum to 0.

 The PART is the frame of reference for boundary condition segment
 set heat transfer data. Positive heat flow is into the part and negative
 heat flow is out of the part.

 energy == energy over this time step of length dt=  1.000000E-02

*ENERGY_BOUNDARY         nfbc=         0     ncbc=         0     nrbc=         0
   bc type   seg set   [energy/time]        [energy]       T_average
                         -----------     -----------
          energy sum      0.0000E+00      0.0000E+00


*ENERGY_PART            npart=         1
    part #  Qgen_chg[energy]  IE_chg[energy]
         1      0.0000E+00     -5.8791E-20
               -----------     -----------
                0.0000E+00     -5.8791E-20

 number of solution iterations  =    1

 QA temperature norm, Tmin, Tmax=   2.702449E-02   4.439794E-07   2.608208E-02
